*Heading
** Job name: job_0011_n32_abaqus Model name: Model-1
** Generated by: Abaqus/CAE 2021
*Preprint, echo=NO, model=NO, history=NO, contact=NO
**
** PARTS
**
*Part, name=Beam
*Node
      1,       1.9375,           0.,           0.
      2,           2.,           0.,           0.
      3,        1.875,           0.,           0.
      4,       1.8125,           0.,           0.
      5,         1.75,           0.,           0.
      6,       1.6875,           0.,           0.
      7,        1.625,           0.,           0.
      8,       1.5625,           0.,           0.
      9,          1.5,           0.,           0.
     10,       1.4375,           0.,           0.
     11,        1.375,           0.,           0.
     12,       1.3125,           0.,           0.
     13,         1.25,           0.,           0.
     14,       1.1875,           0.,           0.
     15,        1.125,           0.,           0.
     16,       1.0625,           0.,           0.
     17,           1.,           0.,           0.
     18,       0.9375,           0.,           0.
     19,        0.875,           0.,           0.
     20,       0.8125,           0.,           0.
** ... 13 like lines cut
*Element, type=B31
1, 1, 2
2, 3, 1
3, 4, 3
4, 5, 4
5, 6, 5
6, 7, 6
7, 8, 7
8, 9, 8
 9, 10,  9
10, 11, 10
11, 12, 11
12, 13, 12
13, 14, 13
14, 15, 14
15, 16, 15
16, 17, 16
17, 18, 17
18, 19, 18
19, 20, 19
20, 21, 20
** ... 12 like lines cut
*Nset, nset=BeamSet, generate
  1,  33,   1
*Elset, elset=BeamSet, generate
  1,  32,   1
** Section: BeamSection  Profile: BeamRectProfile
*Beam Section, elset=BeamSet, material=Steel, poisson = 0.3, temperature=GRADIENTS, section=RECT
0.00947291, 0.138289
0.,0.,-1.
*End Part
**  
**
** ASSEMBLY
**
*Assembly, name=Assembly
**  
*Instance, name=Beam-1, part=Beam
*End Instance
**  
*Nset, nset=DistLoadNode_0, instance=Beam-1
 1,
*Nset, nset=DistLoadNode_1, instance=Beam-1
 2,
*Nset, nset=DistLoadNode_2, instance=Beam-1
 3,
*Nset, nset=DistLoadNode_3, instance=Beam-1
 4,
*Nset, nset=DistLoadNode_4, instance=Beam-1
 5,
*Nset, nset=DistLoadNode_5, instance=Beam-1
 6,
*Nset, nset=DistLoadNode_6, instance=Beam-1
 7,
*Nset, nset=DistLoadNode_7, instance=Beam-1
 8,
*Nset, nset=DistLoadNode_8, instance=Beam-1
 9,
*Nset, nset=DistLoadNode_9, instance=Beam-1
 10,
*Nset, nset=DistLoadNode_10, instance=Beam-1
 11,
*Nset, nset=DistLoadNode_11, instance=Beam-1
 12,
*Nset, nset=DistLoadNode_12, instance=Beam-1
 13,
*Nset, nset=DistLoadNode_13, instance=Beam-1
 14,
*Nset, nset=DistLoadNode_14, instance=Beam-1
 15,
*Nset, nset=DistLoadNode_15, instance=Beam-1
 16,
*Nset, nset=DistLoadNode_16, instance=Beam-1
 17,
*Nset, nset=DistLoadNode_17, instance=Beam-1
 18,
*Nset, nset=DistLoadNode_18, instance=Beam-1
 19,
*Nset, nset=DistLoadNode_19, instance=Beam-1
 20,
** ... 26 like lines cut
*Nset, nset=Fixed, instance=Beam-1
 1,
*End Assembly
** 
** MATERIALS
** 
*Material, name=Steel
*Density
7850.,
*Elastic
 2.1e+11, 0.3
** 
** BOUNDARY CONDITIONS
** 
** Name: Encastre Type: Displacement/Rotation
*Boundary
Fixed, 1, 1
Fixed, 2, 2
Fixed, 3, 3
Fixed, 4, 4
Fixed, 5, 5
Fixed, 6, 6
** ----------------------------------------------------------------
** 
** STEP: Step-1
** 
*Step, name=Step-1, nlgeom=NO
Static
*Static
1., 1., 1e-05, 1.
** 
** BOUNDARY CONDITIONS
** 
** Name: Encastre Type: Displacement/Rotation
*Boundary
Fixed, 1, 1
Fixed, 2, 2
Fixed, 3, 3
Fixed, 4, 4
Fixed, 5, 5
Fixed, 6, 6
** 
** LOADS
** 
** Name: DistCF_0   Type: Concentrated force
*Cload
DistLoadNode_0, 1, 0.
DistLoadNode_0, 2, -0.0020345
DistLoadNode_0, 3, 0.
** Name: DistCF_1   Type: Concentrated force
*Cload
DistLoadNode_1, 1, 0.
DistLoadNode_1, 2, -0.0345866
DistLoadNode_1, 3, 0.
** Name: DistCF_2   Type: Concentrated force
*Cload
DistLoadNode_2, 1, 0.
DistLoadNode_2, 2, -0.126139
DistLoadNode_2, 3, 0.
** Name: DistCF_3   Type: Concentrated force
*Cload
DistLoadNode_3, 1, 0.
DistLoadNode_3, 2, -0.278727
DistLoadNode_3, 3, 0.
** Name: DistCF_4   Type: Concentrated force
*Cload
DistLoadNode_4, 1, 0.
DistLoadNode_4, 2, -0.49235
DistLoadNode_4, 3, 0.
** Name: DistCF_5   Type: Concentrated force
*Cload
DistLoadNode_5, 1, 0.
DistLoadNode_5, 2, -0.767008
DistLoadNode_5, 3, 0.
** Name: DistCF_6   Type: Concentrated force
*Cload
DistLoadNode_6, 1, 0.
DistLoadNode_6, 2, -1.1027
DistLoadNode_6, 3, 0.
** Name: DistCF_7   Type: Concentrated force
*Cload
DistLoadNode_7, 1, 0.
DistLoadNode_7, 2, -1.49943
DistLoadNode_7, 3, 0.
** Name: DistCF_8   Type: Concentrated force
*Cload
DistLoadNode_8, 1, 0.
DistLoadNode_8, 2, -1.95719
DistLoadNode_8, 3, 0.
** Name: DistCF_9   Type: Concentrated force
*Cload
DistLoadNode_9, 1, 0.
DistLoadNode_9, 2, -2.47599
DistLoadNode_9, 3, 0.
** Name: DistCF_10   Type: Concentrated force
*Cload
DistLoadNode_10, 1, 0.
DistLoadNode_10, 2, -3.05583
DistLoadNode_10, 3, 0.
** Name: DistCF_11   Type: Concentrated force
*Cload
DistLoadNode_11, 1, 0.
DistLoadNode_11, 2, -3.6967
DistLoadNode_11, 3, 0.
** Name: DistCF_12   Type: Concentrated force
*Cload
DistLoadNode_12, 1, 0.
DistLoadNode_12, 2, -4.3986
DistLoadNode_12, 3, 0.
** Name: DistCF_13   Type: Concentrated force
*Cload
DistLoadNode_13, 1, 0.
DistLoadNode_13, 2, -5.16154
DistLoadNode_13, 3, 0.
** Name: DistCF_14   Type: Concentrated force
*Cload
DistLoadNode_14, 1, 0.
DistLoadNode_14, 2, -5.98551
DistLoadNode_14, 3, 0.
** Name: DistCF_15   Type: Concentrated force
*Cload
DistLoadNode_15, 1, 0.
DistLoadNode_15, 2, -6.87052
DistLoadNode_15, 3, 0.
** Name: DistCF_16   Type: Concentrated force
*Cload
DistLoadNode_16, 1, 0.
DistLoadNode_16, 2, -7.81657
DistLoadNode_16, 3, 0.
** Name: DistCF_17   Type: Concentrated force
*Cload
DistLoadNode_17, 1, 0.
DistLoadNode_17, 2, -8.82365
DistLoadNode_17, 3, 0.
** Name: DistCF_18   Type: Concentrated force
*Cload
DistLoadNode_18, 1, 0.
DistLoadNode_18, 2, -9.89176
DistLoadNode_18, 3, 0.
** Name: DistCF_19   Type: Concentrated force
*Cload
DistLoadNode_19, 1, 0.
DistLoadNode_19, 2, -11.0209
DistLoadNode_19, 3, 0.
** Name: DistCF_20   Type: Concentrated force
*Cload
DistLoadNode_20, 1, 0.
DistLoadNode_20, 2, -12.2111
DistLoadNode_20, 3, 0.
** Name: DistCF_21   Type: Concentrated force
*Cload
DistLoadNode_21, 1, 0.
DistLoadNode_21, 2, -13.4623
DistLoadNode_21, 3, 0.
** Name: DistCF_22   Type: Concentrated force
*Cload
DistLoadNode_22, 1, 0.
DistLoadNode_22, 2, -14.7746
DistLoadNode_22, 3, 0.
** Name: DistCF_23   Type: Concentrated force
*Cload
DistLoadNode_23, 1, 0.
DistLoadNode_23, 2, -16.1479
DistLoadNode_23, 3, 0.
** Name: DistCF_24   Type: Concentrated force
*Cload
DistLoadNode_24, 1, 0.
DistLoadNode_24, 2, -17.5822
DistLoadNode_24, 3, 0.
** Name: DistCF_25   Type: Concentrated force
*Cload
DistLoadNode_25, 1, 0.
DistLoadNode_25, 2, -19.0776
DistLoadNode_25, 3, 0.
** Name: DistCF_26   Type: Concentrated force
*Cload
DistLoadNode_26, 1, 0.
DistLoadNode_26, 2, -20.634
DistLoadNode_26, 3, 0.
** Name: DistCF_27   Type: Concentrated force
*Cload
DistLoadNode_27, 1, 0.
DistLoadNode_27, 2, -22.2514
DistLoadNode_27, 3, 0.
** Name: DistCF_28   Type: Concentrated force
*Cload
DistLoadNode_28, 1, 0.
DistLoadNode_28, 2, -23.9299
DistLoadNode_28, 3, 0.
** Name: DistCF_29   Type: Concentrated force
*Cload
DistLoadNode_29, 1, 0.
DistLoadNode_29, 2, -25.6694
DistLoadNode_29, 3, 0.
** Name: DistCF_30   Type: Concentrated force
*Cload
DistLoadNode_30, 1, 0.
DistLoadNode_30, 2, -27.4699
DistLoadNode_30, 3, 0.
** Name: DistCF_31   Type: Concentrated force
*Cload
DistLoadNode_31, 1, 0.
DistLoadNode_31, 2, -29.3315
DistLoadNode_31, 3, 0.
** Name: DistCF_32   Type: Concentrated force
*Cload
DistLoadNode_32, 1, 0.
DistLoadNode_32, 2, -15.3341
DistLoadNode_32, 3, 0.
** 
** OUTPUT REQUESTS
** 
*Restart, write, frequency=0
** 
** FIELD OUTPUT: F-Output-1
** 
*Output, field, variable=PRESELECT
** 
** HISTORY OUTPUT: H-Output-1
** 
*Output, history, variable=PRESELECT
*End Step
