*Heading
** Job name: job_0011_n128_abaqus Model name: Model-1
** Generated by: Abaqus/CAE 2021
*Preprint, echo=NO, model=NO, history=NO, contact=NO
**
** PARTS
**
*Part, name=Beam
*Node
      1,     1.984375,           0.,           0.
      2,           2.,           0.,           0.
      3,      1.96875,           0.,           0.
      4,     1.953125,           0.,           0.
      5,       1.9375,           0.,           0.
      6,     1.921875,           0.,           0.
      7,      1.90625,           0.,           0.
      8,     1.890625,           0.,           0.
      9,        1.875,           0.,           0.
     10,     1.859375,           0.,           0.
     11,      1.84375,           0.,           0.
     12,     1.828125,           0.,           0.
     13,       1.8125,           0.,           0.
     14,     1.796875,           0.,           0.
     15,      1.78125,           0.,           0.
     16,     1.765625,           0.,           0.
     17,         1.75,           0.,           0.
     18,     1.734375,           0.,           0.
     19,      1.71875,           0.,           0.
     20,     1.703125,           0.,           0.
** ... 109 like lines cut
*Element, type=B31
1, 1, 2
2, 3, 1
3, 4, 3
4, 5, 4
5, 6, 5
6, 7, 6
7, 8, 7
8, 9, 8
 9, 10,  9
10, 11, 10
11, 12, 11
12, 13, 12
13, 14, 13
14, 15, 14
15, 16, 15
16, 17, 16
17, 18, 17
18, 19, 18
19, 20, 19
20, 21, 20
** ... 108 like lines cut
*Nset, nset=BeamSet, generate
   1,  129,    1
*Elset, elset=BeamSet, generate
   1,  128,    1
** Section: BeamSection  Profile: BeamRectProfile
*Beam Section, elset=BeamSet, material=Steel, poisson = 0.3, temperature=GRADIENTS, section=RECT
0.00947291, 0.138289
0.,0.,-1.
*End Part
**  
**
** ASSEMBLY
**
*Assembly, name=Assembly
**  
*Instance, name=Beam-1, part=Beam
*End Instance
**  
*Nset, nset=DistLoadNode_0, instance=Beam-1
 1,
*Nset, nset=DistLoadNode_1, instance=Beam-1
 2,
*Nset, nset=DistLoadNode_2, instance=Beam-1
 3,
*Nset, nset=DistLoadNode_3, instance=Beam-1
 4,
*Nset, nset=DistLoadNode_4, instance=Beam-1
 5,
*Nset, nset=DistLoadNode_5, instance=Beam-1
 6,
*Nset, nset=DistLoadNode_6, instance=Beam-1
 7,
*Nset, nset=DistLoadNode_7, instance=Beam-1
 8,
*Nset, nset=DistLoadNode_8, instance=Beam-1
 9,
*Nset, nset=DistLoadNode_9, instance=Beam-1
 10,
*Nset, nset=DistLoadNode_10, instance=Beam-1
 11,
*Nset, nset=DistLoadNode_11, instance=Beam-1
 12,
*Nset, nset=DistLoadNode_12, instance=Beam-1
 13,
*Nset, nset=DistLoadNode_13, instance=Beam-1
 14,
*Nset, nset=DistLoadNode_14, instance=Beam-1
 15,
*Nset, nset=DistLoadNode_15, instance=Beam-1
 16,
*Nset, nset=DistLoadNode_16, instance=Beam-1
 17,
*Nset, nset=DistLoadNode_17, instance=Beam-1
 18,
*Nset, nset=DistLoadNode_18, instance=Beam-1
 19,
*Nset, nset=DistLoadNode_19, instance=Beam-1
 20,
** ... 218 like lines cut
*Nset, nset=Fixed, instance=Beam-1
 1,
*End Assembly
** 
** MATERIALS
** 
*Material, name=Steel
*Density
7850.,
*Elastic
 2.1e+11, 0.3
** 
** BOUNDARY CONDITIONS
** 
** Name: Encastre Type: Displacement/Rotation
*Boundary
Fixed, 1, 1
Fixed, 2, 2
Fixed, 3, 3
Fixed, 4, 4
Fixed, 5, 5
Fixed, 6, 6
** ----------------------------------------------------------------
** 
** STEP: Step-1
** 
*Step, name=Step-1, nlgeom=NO
Static
*Static
1., 1., 1e-05, 1.
** 
** BOUNDARY CONDITIONS
** 
** Name: Encastre Type: Displacement/Rotation
*Boundary
Fixed, 1, 1
Fixed, 2, 2
Fixed, 3, 3
Fixed, 4, 4
Fixed, 5, 5
Fixed, 6, 6
** 
** LOADS
** 
** Name: DistCF_0   Type: Concentrated force
*Cload
DistLoadNode_0, 1, 0.
DistLoadNode_0, 2, -3.17919e-05
DistLoadNode_0, 3, 0.
** Name: DistCF_1   Type: Concentrated force
*Cload
DistLoadNode_1, 1, 0.
DistLoadNode_1, 2, -0.000540421
DistLoadNode_1, 3, 0.
** Name: DistCF_2   Type: Concentrated force
*Cload
DistLoadNode_2, 1, 0.
DistLoadNode_2, 2, -0.00197092
DistLoadNode_2, 3, 0.
** Name: DistCF_3   Type: Concentrated force
*Cload
DistLoadNode_3, 1, 0.
DistLoadNode_3, 2, -0.00435511
DistLoadNode_3, 3, 0.
** Name: DistCF_4   Type: Concentrated force
*Cload
DistLoadNode_4, 1, 0.
DistLoadNode_4, 2, -0.00769297
DistLoadNode_4, 3, 0.
** Name: DistCF_5   Type: Concentrated force
*Cload
DistLoadNode_5, 1, 0.
DistLoadNode_5, 2, -0.0119845
DistLoadNode_5, 3, 0.
** Name: DistCF_6   Type: Concentrated force
*Cload
DistLoadNode_6, 1, 0.
DistLoadNode_6, 2, -0.0172297
DistLoadNode_6, 3, 0.
** Name: DistCF_7   Type: Concentrated force
*Cload
DistLoadNode_7, 1, 0.
DistLoadNode_7, 2, -0.0234286
DistLoadNode_7, 3, 0.
** Name: DistCF_8   Type: Concentrated force
*Cload
DistLoadNode_8, 1, 0.
DistLoadNode_8, 2, -0.0305812
DistLoadNode_8, 3, 0.
** Name: DistCF_9   Type: Concentrated force
*Cload
DistLoadNode_9, 1, 0.
DistLoadNode_9, 2, -0.0386874
DistLoadNode_9, 3, 0.
** Name: DistCF_10   Type: Concentrated force
*Cload
DistLoadNode_10, 1, 0.
DistLoadNode_10, 2, -0.0477473
DistLoadNode_10, 3, 0.
** Name: DistCF_11   Type: Concentrated force
*Cload
DistLoadNode_11, 1, 0.
DistLoadNode_11, 2, -0.0577609
DistLoadNode_11, 3, 0.
** Name: DistCF_12   Type: Concentrated force
*Cload
DistLoadNode_12, 1, 0.
DistLoadNode_12, 2, -0.0687281
DistLoadNode_12, 3, 0.
** Name: DistCF_13   Type: Concentrated force
*Cload
DistLoadNode_13, 1, 0.
DistLoadNode_13, 2, -0.0806491
DistLoadNode_13, 3, 0.
** Name: DistCF_14   Type: Concentrated force
*Cload
DistLoadNode_14, 1, 0.
DistLoadNode_14, 2, -0.0935237
DistLoadNode_14, 3, 0.
** Name: DistCF_15   Type: Concentrated force
*Cload
DistLoadNode_15, 1, 0.
DistLoadNode_15, 2, -0.107352
DistLoadNode_15, 3, 0.
** Name: DistCF_16   Type: Concentrated force
*Cload
DistLoadNode_16, 1, 0.
DistLoadNode_16, 2, -0.122134
DistLoadNode_16, 3, 0.
** Name: DistCF_17   Type: Concentrated force
*Cload
DistLoadNode_17, 1, 0.
DistLoadNode_17, 2, -0.13787
DistLoadNode_17, 3, 0.
** Name: DistCF_18   Type: Concentrated force
*Cload
DistLoadNode_18, 1, 0.
DistLoadNode_18, 2, -0.154559
DistLoadNode_18, 3, 0.
** Name: DistCF_19   Type: Concentrated force
*Cload
DistLoadNode_19, 1, 0.
DistLoadNode_19, 2, -0.172202
DistLoadNode_19, 3, 0.
** Name: DistCF_20   Type: Concentrated force
*Cload
DistLoadNode_20, 1, 0.
DistLoadNode_20, 2, -0.190798
DistLoadNode_20, 3, 0.
** Name: DistCF_21   Type: Concentrated force
*Cload
DistLoadNode_21, 1, 0.
DistLoadNode_21, 2, -0.210349
DistLoadNode_21, 3, 0.
** Name: DistCF_22   Type: Concentrated force
*Cload
DistLoadNode_22, 1, 0.
DistLoadNode_22, 2, -0.230853
DistLoadNode_22, 3, 0.
** Name: DistCF_23   Type: Concentrated force
*Cload
DistLoadNode_23, 1, 0.
DistLoadNode_23, 2, -0.25231
DistLoadNode_23, 3, 0.
** Name: DistCF_24   Type: Concentrated force
*Cload
DistLoadNode_24, 1, 0.
DistLoadNode_24, 2, -0.274722
DistLoadNode_24, 3, 0.
** Name: DistCF_25   Type: Concentrated force
*Cload
DistLoadNode_25, 1, 0.
DistLoadNode_25, 2, -0.298087
DistLoadNode_25, 3, 0.
** Name: DistCF_26   Type: Concentrated force
*Cload
DistLoadNode_26, 1, 0.
DistLoadNode_26, 2, -0.322405
DistLoadNode_26, 3, 0.
** Name: DistCF_27   Type: Concentrated force
*Cload
DistLoadNode_27, 1, 0.
DistLoadNode_27, 2, -0.347678
DistLoadNode_27, 3, 0.
** Name: DistCF_28   Type: Concentrated force
*Cload
DistLoadNode_28, 1, 0.
DistLoadNode_28, 2, -0.373904
DistLoadNode_28, 3, 0.
** Name: DistCF_29   Type: Concentrated force
*Cload
DistLoadNode_29, 1, 0.
DistLoadNode_29, 2, -0.401084
DistLoadNode_29, 3, 0.
** Name: DistCF_30   Type: Concentrated force
*Cload
DistLoadNode_30, 1, 0.
DistLoadNode_30, 2, -0.429217
DistLoadNode_30, 3, 0.
** Name: DistCF_31   Type: Concentrated force
*Cload
DistLoadNode_31, 1, 0.
DistLoadNode_31, 2, -0.458304
DistLoadNode_31, 3, 0.
** Name: DistCF_32   Type: Concentrated force
*Cload
DistLoadNode_32, 1, 0.
DistLoadNode_32, 2, -0.488345
DistLoadNode_32, 3, 0.
** Name: DistCF_33   Type: Concentrated force
*Cload
DistLoadNode_33, 1, 0.
DistLoadNode_33, 2, -0.519339
DistLoadNode_33, 3, 0.
** Name: DistCF_34   Type: Concentrated force
*Cload
DistLoadNode_34, 1, 0.
DistLoadNode_34, 2, -0.551287
DistLoadNode_34, 3, 0.
** Name: DistCF_35   Type: Concentrated force
*Cload
DistLoadNode_35, 1, 0.
DistLoadNode_35, 2, -0.584189
DistLoadNode_35, 3, 0.
** Name: DistCF_36   Type: Concentrated force
*Cload
DistLoadNode_36, 1, 0.
DistLoadNode_36, 2, -0.618045
DistLoadNode_36, 3, 0.
** Name: DistCF_37   Type: Concentrated force
*Cload
DistLoadNode_37, 1, 0.
DistLoadNode_37, 2, -0.652854
DistLoadNode_37, 3, 0.
** Name: DistCF_38   Type: Concentrated force
*Cload
DistLoadNode_38, 1, 0.
DistLoadNode_38, 2, -0.688616
DistLoadNode_38, 3, 0.
** Name: DistCF_39   Type: Concentrated force
*Cload
DistLoadNode_39, 1, 0.
DistLoadNode_39, 2, -0.725333
DistLoadNode_39, 3, 0.
** Name: DistCF_40   Type: Concentrated force
*Cload
DistLoadNode_40, 1, 0.
DistLoadNode_40, 2, -0.763003
DistLoadNode_40, 3, 0.
** Name: DistCF_41   Type: Concentrated force
*Cload
DistLoadNode_41, 1, 0.
DistLoadNode_41, 2, -0.801627
DistLoadNode_41, 3, 0.
** Name: DistCF_42   Type: Concentrated force
*Cload
DistLoadNode_42, 1, 0.
DistLoadNode_42, 2, -0.841204
DistLoadNode_42, 3, 0.
** Name: DistCF_43   Type: Concentrated force
*Cload
DistLoadNode_43, 1, 0.
DistLoadNode_43, 2, -0.881735
DistLoadNode_43, 3, 0.
** Name: DistCF_44   Type: Concentrated force
*Cload
DistLoadNode_44, 1, 0.
DistLoadNode_44, 2, -0.92322
DistLoadNode_44, 3, 0.
** Name: DistCF_45   Type: Concentrated force
*Cload
DistLoadNode_45, 1, 0.
DistLoadNode_45, 2, -0.965659
DistLoadNode_45, 3, 0.
** Name: DistCF_46   Type: Concentrated force
*Cload
DistLoadNode_46, 1, 0.
DistLoadNode_46, 2, -1.00905
DistLoadNode_46, 3, 0.
** Name: DistCF_47   Type: Concentrated force
*Cload
DistLoadNode_47, 1, 0.
DistLoadNode_47, 2, -1.0534
DistLoadNode_47, 3, 0.
** Name: DistCF_48   Type: Concentrated force
*Cload
DistLoadNode_48, 1, 0.
DistLoadNode_48, 2, -1.0987
DistLoadNode_48, 3, 0.
** Name: DistCF_49   Type: Concentrated force
*Cload
DistLoadNode_49, 1, 0.
DistLoadNode_49, 2, -1.14495
DistLoadNode_49, 3, 0.
** Name: DistCF_50   Type: Concentrated force
*Cload
DistLoadNode_50, 1, 0.
DistLoadNode_50, 2, -1.19216
DistLoadNode_50, 3, 0.
** Name: DistCF_51   Type: Concentrated force
*Cload
DistLoadNode_51, 1, 0.
DistLoadNode_51, 2, -1.24032
DistLoadNode_51, 3, 0.
** Name: DistCF_52   Type: Concentrated force
*Cload
DistLoadNode_52, 1, 0.
DistLoadNode_52, 2, -1.28943
DistLoadNode_52, 3, 0.
** Name: DistCF_53   Type: Concentrated force
*Cload
DistLoadNode_53, 1, 0.
DistLoadNode_53, 2, -1.3395
DistLoadNode_53, 3, 0.
** Name: DistCF_54   Type: Concentrated force
*Cload
DistLoadNode_54, 1, 0.
DistLoadNode_54, 2, -1.39052
DistLoadNode_54, 3, 0.
** Name: DistCF_55   Type: Concentrated force
*Cload
DistLoadNode_55, 1, 0.
DistLoadNode_55, 2, -1.4425
DistLoadNode_55, 3, 0.
** Name: DistCF_56   Type: Concentrated force
*Cload
DistLoadNode_56, 1, 0.
DistLoadNode_56, 2, -1.49542
DistLoadNode_56, 3, 0.
** Name: DistCF_57   Type: Concentrated force
*Cload
DistLoadNode_57, 1, 0.
DistLoadNode_57, 2, -1.54931
DistLoadNode_57, 3, 0.
** Name: DistCF_58   Type: Concentrated force
*Cload
DistLoadNode_58, 1, 0.
DistLoadNode_58, 2, -1.60414
DistLoadNode_58, 3, 0.
** Name: DistCF_59   Type: Concentrated force
*Cload
DistLoadNode_59, 1, 0.
DistLoadNode_59, 2, -1.65993
DistLoadNode_59, 3, 0.
** Name: DistCF_60   Type: Concentrated force
*Cload
DistLoadNode_60, 1, 0.
DistLoadNode_60, 2, -1.71668
DistLoadNode_60, 3, 0.
** Name: DistCF_61   Type: Concentrated force
*Cload
DistLoadNode_61, 1, 0.
DistLoadNode_61, 2, -1.77437
DistLoadNode_61, 3, 0.
** Name: DistCF_62   Type: Concentrated force
*Cload
DistLoadNode_62, 1, 0.
DistLoadNode_62, 2, -1.83303
DistLoadNode_62, 3, 0.
** Name: DistCF_63   Type: Concentrated force
*Cload
DistLoadNode_63, 1, 0.
DistLoadNode_63, 2, -1.89263
DistLoadNode_63, 3, 0.
** Name: DistCF_64   Type: Concentrated force
*Cload
DistLoadNode_64, 1, 0.
DistLoadNode_64, 2, -1.95319
DistLoadNode_64, 3, 0.
** Name: DistCF_65   Type: Concentrated force
*Cload
DistLoadNode_65, 1, 0.
DistLoadNode_65, 2, -2.0147
DistLoadNode_65, 3, 0.
** Name: DistCF_66   Type: Concentrated force
*Cload
DistLoadNode_66, 1, 0.
DistLoadNode_66, 2, -2.07717
DistLoadNode_66, 3, 0.
** Name: DistCF_67   Type: Concentrated force
*Cload
DistLoadNode_67, 1, 0.
DistLoadNode_67, 2, -2.14059
DistLoadNode_67, 3, 0.
** Name: DistCF_68   Type: Concentrated force
*Cload
DistLoadNode_68, 1, 0.
DistLoadNode_68, 2, -2.20496
DistLoadNode_68, 3, 0.
** Name: DistCF_69   Type: Concentrated force
*Cload
DistLoadNode_69, 1, 0.
DistLoadNode_69, 2, -2.27029
DistLoadNode_69, 3, 0.
** Name: DistCF_70   Type: Concentrated force
*Cload
DistLoadNode_70, 1, 0.
DistLoadNode_70, 2, -2.33657
DistLoadNode_70, 3, 0.
** Name: DistCF_71   Type: Concentrated force
*Cload
DistLoadNode_71, 1, 0.
DistLoadNode_71, 2, -2.4038
DistLoadNode_71, 3, 0.
** Name: DistCF_72   Type: Concentrated force
*Cload
DistLoadNode_72, 1, 0.
DistLoadNode_72, 2, -2.47199
DistLoadNode_72, 3, 0.
** Name: DistCF_73   Type: Concentrated force
*Cload
DistLoadNode_73, 1, 0.
DistLoadNode_73, 2, -2.54113
DistLoadNode_73, 3, 0.
** Name: DistCF_74   Type: Concentrated force
*Cload
DistLoadNode_74, 1, 0.
DistLoadNode_74, 2, -2.61122
DistLoadNode_74, 3, 0.
** Name: DistCF_75   Type: Concentrated force
*Cload
DistLoadNode_75, 1, 0.
DistLoadNode_75, 2, -2.68227
DistLoadNode_75, 3, 0.
** Name: DistCF_76   Type: Concentrated force
*Cload
DistLoadNode_76, 1, 0.
DistLoadNode_76, 2, -2.75428
DistLoadNode_76, 3, 0.
** Name: DistCF_77   Type: Concentrated force
*Cload
DistLoadNode_77, 1, 0.
DistLoadNode_77, 2, -2.82723
DistLoadNode_77, 3, 0.
** Name: DistCF_78   Type: Concentrated force
*Cload
DistLoadNode_78, 1, 0.
DistLoadNode_78, 2, -2.90114
DistLoadNode_78, 3, 0.
** Name: DistCF_79   Type: Concentrated force
*Cload
DistLoadNode_79, 1, 0.
DistLoadNode_79, 2, -2.976
DistLoadNode_79, 3, 0.
** Name: DistCF_80   Type: Concentrated force
*Cload
DistLoadNode_80, 1, 0.
DistLoadNode_80, 2, -3.05182
DistLoadNode_80, 3, 0.
** Name: DistCF_81   Type: Concentrated force
*Cload
DistLoadNode_81, 1, 0.
DistLoadNode_81, 2, -3.12859
DistLoadNode_81, 3, 0.
** Name: DistCF_82   Type: Concentrated force
*Cload
DistLoadNode_82, 1, 0.
DistLoadNode_82, 2, -3.20632
DistLoadNode_82, 3, 0.
** Name: DistCF_83   Type: Concentrated force
*Cload
DistLoadNode_83, 1, 0.
DistLoadNode_83, 2, -3.28499
DistLoadNode_83, 3, 0.
** Name: DistCF_84   Type: Concentrated force
*Cload
DistLoadNode_84, 1, 0.
DistLoadNode_84, 2, -3.36463
DistLoadNode_84, 3, 0.
** Name: DistCF_85   Type: Concentrated force
*Cload
DistLoadNode_85, 1, 0.
DistLoadNode_85, 2, -3.44521
DistLoadNode_85, 3, 0.
** Name: DistCF_86   Type: Concentrated force
*Cload
DistLoadNode_86, 1, 0.
DistLoadNode_86, 2, -3.52675
DistLoadNode_86, 3, 0.
** Name: DistCF_87   Type: Concentrated force
*Cload
DistLoadNode_87, 1, 0.
DistLoadNode_87, 2, -3.60924
DistLoadNode_87, 3, 0.
** Name: DistCF_88   Type: Concentrated force
*Cload
DistLoadNode_88, 1, 0.
DistLoadNode_88, 2, -3.69269
DistLoadNode_88, 3, 0.
** Name: DistCF_89   Type: Concentrated force
*Cload
DistLoadNode_89, 1, 0.
DistLoadNode_89, 2, -3.77709
DistLoadNode_89, 3, 0.
** Name: DistCF_90   Type: Concentrated force
*Cload
DistLoadNode_90, 1, 0.
DistLoadNode_90, 2, -3.86244
DistLoadNode_90, 3, 0.
** Name: DistCF_91   Type: Concentrated force
*Cload
DistLoadNode_91, 1, 0.
DistLoadNode_91, 2, -3.94875
DistLoadNode_91, 3, 0.
** Name: DistCF_92   Type: Concentrated force
*Cload
DistLoadNode_92, 1, 0.
DistLoadNode_92, 2, -4.03601
DistLoadNode_92, 3, 0.
** Name: DistCF_93   Type: Concentrated force
*Cload
DistLoadNode_93, 1, 0.
DistLoadNode_93, 2, -4.12423
DistLoadNode_93, 3, 0.
** Name: DistCF_94   Type: Concentrated force
*Cload
DistLoadNode_94, 1, 0.
DistLoadNode_94, 2, -4.2134
DistLoadNode_94, 3, 0.
** Name: DistCF_95   Type: Concentrated force
*Cload
DistLoadNode_95, 1, 0.
DistLoadNode_95, 2, -4.30352
DistLoadNode_95, 3, 0.
** Name: DistCF_96   Type: Concentrated force
*Cload
DistLoadNode_96, 1, 0.
DistLoadNode_96, 2, -4.39459
DistLoadNode_96, 3, 0.
** Name: DistCF_97   Type: Concentrated force
*Cload
DistLoadNode_97, 1, 0.
DistLoadNode_97, 2, -4.48662
DistLoadNode_97, 3, 0.
** Name: DistCF_98   Type: Concentrated force
*Cload
DistLoadNode_98, 1, 0.
DistLoadNode_98, 2, -4.57961
DistLoadNode_98, 3, 0.
** Name: DistCF_99   Type: Concentrated force
*Cload
DistLoadNode_99, 1, 0.
DistLoadNode_99, 2, -4.67354
DistLoadNode_99, 3, 0.
** Name: DistCF_100   Type: Concentrated force
*Cload
DistLoadNode_100, 1, 0.
DistLoadNode_100, 2, -4.76844
DistLoadNode_100, 3, 0.
** Name: DistCF_101   Type: Concentrated force
*Cload
DistLoadNode_101, 1, 0.
DistLoadNode_101, 2, -4.86428
DistLoadNode_101, 3, 0.
** Name: DistCF_102   Type: Concentrated force
*Cload
DistLoadNode_102, 1, 0.
DistLoadNode_102, 2, -4.96108
DistLoadNode_102, 3, 0.
** Name: DistCF_103   Type: Concentrated force
*Cload
DistLoadNode_103, 1, 0.
DistLoadNode_103, 2, -5.05883
DistLoadNode_103, 3, 0.
** Name: DistCF_104   Type: Concentrated force
*Cload
DistLoadNode_104, 1, 0.
DistLoadNode_104, 2, -5.15753
DistLoadNode_104, 3, 0.
** Name: DistCF_105   Type: Concentrated force
*Cload
DistLoadNode_105, 1, 0.
DistLoadNode_105, 2, -5.25719
DistLoadNode_105, 3, 0.
** Name: DistCF_106   Type: Concentrated force
*Cload
DistLoadNode_106, 1, 0.
DistLoadNode_106, 2, -5.35781
DistLoadNode_106, 3, 0.
** Name: DistCF_107   Type: Concentrated force
*Cload
DistLoadNode_107, 1, 0.
DistLoadNode_107, 2, -5.45937
DistLoadNode_107, 3, 0.
** Name: DistCF_108   Type: Concentrated force
*Cload
DistLoadNode_108, 1, 0.
DistLoadNode_108, 2, -5.56189
DistLoadNode_108, 3, 0.
** Name: DistCF_109   Type: Concentrated force
*Cload
DistLoadNode_109, 1, 0.
DistLoadNode_109, 2, -5.66537
DistLoadNode_109, 3, 0.
** Name: DistCF_110   Type: Concentrated force
*Cload
DistLoadNode_110, 1, 0.
DistLoadNode_110, 2, -5.76979
DistLoadNode_110, 3, 0.
** Name: DistCF_111   Type: Concentrated force
*Cload
DistLoadNode_111, 1, 0.
DistLoadNode_111, 2, -5.87517
DistLoadNode_111, 3, 0.
** Name: DistCF_112   Type: Concentrated force
*Cload
DistLoadNode_112, 1, 0.
DistLoadNode_112, 2, -5.98151
DistLoadNode_112, 3, 0.
** Name: DistCF_113   Type: Concentrated force
*Cload
DistLoadNode_113, 1, 0.
DistLoadNode_113, 2, -6.0888
DistLoadNode_113, 3, 0.
** Name: DistCF_114   Type: Concentrated force
*Cload
DistLoadNode_114, 1, 0.
DistLoadNode_114, 2, -6.19704
DistLoadNode_114, 3, 0.
** Name: DistCF_115   Type: Concentrated force
*Cload
DistLoadNode_115, 1, 0.
DistLoadNode_115, 2, -6.30623
DistLoadNode_115, 3, 0.
** Name: DistCF_116   Type: Concentrated force
*Cload
DistLoadNode_116, 1, 0.
DistLoadNode_116, 2, -6.41638
DistLoadNode_116, 3, 0.
** Name: DistCF_117   Type: Concentrated force
*Cload
DistLoadNode_117, 1, 0.
DistLoadNode_117, 2, -6.52749
DistLoadNode_117, 3, 0.
** Name: DistCF_118   Type: Concentrated force
*Cload
DistLoadNode_118, 1, 0.
DistLoadNode_118, 2, -6.63954
DistLoadNode_118, 3, 0.
** Name: DistCF_119   Type: Concentrated force
*Cload
DistLoadNode_119, 1, 0.
DistLoadNode_119, 2, -6.75255
DistLoadNode_119, 3, 0.
** Name: DistCF_120   Type: Concentrated force
*Cload
DistLoadNode_120, 1, 0.
DistLoadNode_120, 2, -6.86652
DistLoadNode_120, 3, 0.
** Name: DistCF_121   Type: Concentrated force
*Cload
DistLoadNode_121, 1, 0.
DistLoadNode_121, 2, -6.98144
DistLoadNode_121, 3, 0.
** Name: DistCF_122   Type: Concentrated force
*Cload
DistLoadNode_122, 1, 0.
DistLoadNode_122, 2, -7.09731
DistLoadNode_122, 3, 0.
** Name: DistCF_123   Type: Concentrated force
*Cload
DistLoadNode_123, 1, 0.
DistLoadNode_123, 2, -7.21413
DistLoadNode_123, 3, 0.
** Name: DistCF_124   Type: Concentrated force
*Cload
DistLoadNode_124, 1, 0.
DistLoadNode_124, 2, -7.33191
DistLoadNode_124, 3, 0.
** Name: DistCF_125   Type: Concentrated force
*Cload
DistLoadNode_125, 1, 0.
DistLoadNode_125, 2, -7.45064
DistLoadNode_125, 3, 0.
** Name: DistCF_126   Type: Concentrated force
*Cload
DistLoadNode_126, 1, 0.
DistLoadNode_126, 2, -7.57033
DistLoadNode_126, 3, 0.
** Name: DistCF_127   Type: Concentrated force
*Cload
DistLoadNode_127, 1, 0.
DistLoadNode_127, 2, -7.69097
DistLoadNode_127, 3, 0.
** Name: DistCF_128   Type: Concentrated force
*Cload
DistLoadNode_128, 1, 0.
DistLoadNode_128, 2, -3.88797
DistLoadNode_128, 3, 0.
** 
** OUTPUT REQUESTS
** 
*Restart, write, frequency=0
** 
** FIELD OUTPUT: F-Output-1
** 
*Output, field, variable=PRESELECT
** 
** HISTORY OUTPUT: H-Output-1
** 
*Output, history, variable=PRESELECT
*End Step
