*Heading
** Job name: job_0006_n8_abaqus Model name: Model-1
** Generated by: Abaqus/CAE 2021
*Preprint, echo=NO, model=NO, history=NO, contact=NO
**
** PARTS
**
*Part, name=Beam
*Node
      1,         1.75,           0.,           0.
      2,           2.,           0.,           0.
      3,          1.5,           0.,           0.
      4,         1.25,           0.,           0.
      5,           1.,           0.,           0.
      6,         0.75,           0.,           0.
      7,          0.5,           0.,           0.
      8,         0.25,           0.,           0.
      9,           0.,           0.,           0.
*Element, type=B31
1, 1, 2
2, 3, 1
3, 4, 3
4, 5, 4
5, 6, 5
6, 7, 6
7, 8, 7
8, 9, 8
*Nset, nset=BeamSet, generate
 1,  9,  1
*Elset, elset=BeamSet, generate
 1,  8,  1
** Section: BeamSection  Profile: BeamRectProfile
*Beam Section, elset=BeamSet, material=Steel, poisson = 0.3, temperature=GRADIENTS, section=RECT
0.00947291, 0.138289
0.,0.,-1.
*End Part
**  
**
** ASSEMBLY
**
*Assembly, name=Assembly
**  
*Instance, name=Beam-1, part=Beam
*End Instance
**  
*Nset, nset=Fixed, instance=Beam-1
 1,
*Nset, nset=LoadNode_0, instance=Beam-1
 9,
*End Assembly
** 
** MATERIALS
** 
*Material, name=Steel
*Density
7850.,
*Elastic
 2.1e+11, 0.3
** 
** BOUNDARY CONDITIONS
** 
** Name: Encastre Type: Displacement/Rotation
*Boundary
Fixed, 1, 1
Fixed, 2, 2
Fixed, 3, 3
Fixed, 4, 4
Fixed, 5, 5
Fixed, 6, 6
** ----------------------------------------------------------------
** 
** STEP: Step-1
** 
*Step, name=Step-1, nlgeom=NO
Static
*Static
1., 1., 1e-05, 1.
** 
** BOUNDARY CONDITIONS
** 
** Name: Encastre Type: Displacement/Rotation
*Boundary
Fixed, 1, 1
Fixed, 2, 2
Fixed, 3, 3
Fixed, 4, 4
Fixed, 5, 5
Fixed, 6, 6
** 
** LOADS
** 
** Name: CF_0   Type: Concentrated force
*Cload
LoadNode_0, 1, 0.
LoadNode_0, 2, -500.
LoadNode_0, 3, 0.
** 
** OUTPUT REQUESTS
** 
*Restart, write, frequency=0
** 
** FIELD OUTPUT: F-Output-1
** 
*Output, field, variable=PRESELECT
** 
** HISTORY OUTPUT: H-Output-1
** 
*Output, history, variable=PRESELECT
*End Step
