*Heading
** Job name: job_0005_n4_abaqus Model name: Model-1
** Generated by: Abaqus/CAE 2021
*Preprint, echo=NO, model=NO, history=NO, contact=NO
**
** PARTS
**
*Part, name=Beam
*Node
      1,          1.5,           0.,           0.
      2,           2.,           0.,           0.
      3,           1.,           0.,           0.
      4,          0.5,           0.,           0.
      5,           0.,           0.,           0.
*Element, type=B31
1, 1, 2
2, 3, 1
3, 4, 3
4, 5, 4
*Nset, nset=BeamSet, generate
 1,  5,  1
*Elset, elset=BeamSet, generate
 1,  4,  1
** Section: BeamSection  Profile: BeamRectProfile
*Beam Section, elset=BeamSet, material=Steel, poisson = 0.3, temperature=GRADIENTS, section=RECT
0.00947291, 0.138289
0.,0.,-1.
*End Part
**  
**
** ASSEMBLY
**
*Assembly, name=Assembly
**  
*Instance, name=Beam-1, part=Beam
*End Instance
**  
*Nset, nset=DistLoadNode_0, instance=Beam-1
 1,
*Nset, nset=DistLoadNode_1, instance=Beam-1
 2,
*Nset, nset=DistLoadNode_2, instance=Beam-1
 3,
*Nset, nset=DistLoadNode_3, instance=Beam-1
 4,
*Nset, nset=DistLoadNode_4, instance=Beam-1
 5,
*Nset, nset=Fixed, instance=Beam-1
 1,
*End Assembly
** 
** MATERIALS
** 
*Material, name=Steel
*Density
7850.,
*Elastic
 2.1e+11, 0.3
** 
** BOUNDARY CONDITIONS
** 
** Name: Encastre Type: Displacement/Rotation
*Boundary
Fixed, 1, 1
Fixed, 2, 2
Fixed, 3, 3
Fixed, 4, 4
Fixed, 5, 5
Fixed, 6, 6
** ----------------------------------------------------------------
** 
** STEP: Step-1
** 
*Step, name=Step-1, nlgeom=NO
Static
*Static
1., 1., 1e-05, 1.
** 
** BOUNDARY CONDITIONS
** 
** Name: Encastre Type: Displacement/Rotation
*Boundary
Fixed, 1, 1
Fixed, 2, 2
Fixed, 3, 3
Fixed, 4, 4
Fixed, 5, 5
Fixed, 6, 6
** 
** LOADS
** 
** Name: DistCF_0   Type: Concentrated force
*Cload
DistLoadNode_0, 1, 0.
DistLoadNode_0, 2, -1.04167
DistLoadNode_0, 3, 0.
** Name: DistCF_1   Type: Concentrated force
*Cload
DistLoadNode_1, 1, 0.
DistLoadNode_1, 2, -17.7083
DistLoadNode_1, 3, 0.
** Name: DistCF_2   Type: Concentrated force
*Cload
DistLoadNode_2, 1, 0.
DistLoadNode_2, 2, -64.5833
DistLoadNode_2, 3, 0.
** Name: DistCF_3   Type: Concentrated force
*Cload
DistLoadNode_3, 1, 0.
DistLoadNode_3, 2, -142.708
DistLoadNode_3, 3, 0.
** Name: DistCF_4   Type: Concentrated force
*Cload
DistLoadNode_4, 1, 0.
DistLoadNode_4, 2, -107.292
DistLoadNode_4, 3, 0.
** 
** OUTPUT REQUESTS
** 
*Restart, write, frequency=0
** 
** FIELD OUTPUT: F-Output-1
** 
*Output, field, variable=PRESELECT
** 
** HISTORY OUTPUT: H-Output-1
** 
*Output, history, variable=PRESELECT
*End Step
