*Heading
** Job name: job_0004_n16_abaqus Model name: Model-1
** Generated by: Abaqus/CAE 2021
*Preprint, echo=NO, model=NO, history=NO, contact=NO
**
** PARTS
**
*Part, name=Beam
*Node
      1,        1.875,           0.,           0.
      2,           2.,           0.,           0.
      3,         1.75,           0.,           0.
      4,        1.625,           0.,           0.
      5,          1.5,           0.,           0.
      6,        1.375,           0.,           0.
      7,         1.25,           0.,           0.
      8,        1.125,           0.,           0.
      9,           1.,           0.,           0.
     10,        0.875,           0.,           0.
     11,         0.75,           0.,           0.
     12,        0.625,           0.,           0.
     13,          0.5,           0.,           0.
     14,        0.375,           0.,           0.
     15,         0.25,           0.,           0.
     16,        0.125,           0.,           0.
     17,           0.,           0.,           0.
*Element, type=B31
1, 1, 2
2, 3, 1
3, 4, 3
4, 5, 4
5, 6, 5
6, 7, 6
7, 8, 7
8, 9, 8
 9, 10,  9
10, 11, 10
11, 12, 11
12, 13, 12
13, 14, 13
14, 15, 14
15, 16, 15
16, 17, 16
*Nset, nset=BeamSet, generate
  1,  17,   1
*Elset, elset=BeamSet, generate
  1,  16,   1
** Section: BeamSection  Profile: BeamRectProfile
*Beam Section, elset=BeamSet, material=Steel, poisson = 0.3, temperature=GRADIENTS, section=RECT
0.00947291, 0.138289
0.,0.,-1.
*End Part
**  
**
** ASSEMBLY
**
*Assembly, name=Assembly
**  
*Instance, name=Beam-1, part=Beam
*End Instance
**  
*Nset, nset=DistLoadNode_0, instance=Beam-1
 1,
*Nset, nset=DistLoadNode_1, instance=Beam-1
 2,
*Nset, nset=DistLoadNode_2, instance=Beam-1
 3,
*Nset, nset=DistLoadNode_3, instance=Beam-1
 4,
*Nset, nset=DistLoadNode_4, instance=Beam-1
 5,
*Nset, nset=DistLoadNode_5, instance=Beam-1
 6,
*Nset, nset=DistLoadNode_6, instance=Beam-1
 7,
*Nset, nset=DistLoadNode_7, instance=Beam-1
 8,
*Nset, nset=DistLoadNode_8, instance=Beam-1
 9,
*Nset, nset=DistLoadNode_9, instance=Beam-1
 10,
*Nset, nset=DistLoadNode_10, instance=Beam-1
 11,
*Nset, nset=DistLoadNode_11, instance=Beam-1
 12,
*Nset, nset=DistLoadNode_12, instance=Beam-1
 13,
*Nset, nset=DistLoadNode_13, instance=Beam-1
 14,
*Nset, nset=DistLoadNode_14, instance=Beam-1
 15,
*Nset, nset=DistLoadNode_15, instance=Beam-1
 16,
*Nset, nset=DistLoadNode_16, instance=Beam-1
 17,
*Nset, nset=Fixed, instance=Beam-1
 1,
*End Assembly
** 
** MATERIALS
** 
*Material, name=Steel
*Density
7850.,
*Elastic
 2.1e+11, 0.3
** 
** BOUNDARY CONDITIONS
** 
** Name: Encastre Type: Displacement/Rotation
*Boundary
Fixed, 1, 1
Fixed, 2, 2
Fixed, 3, 3
Fixed, 4, 4
Fixed, 5, 5
Fixed, 6, 6
** ----------------------------------------------------------------
** 
** STEP: Step-1
** 
*Step, name=Step-1, nlgeom=NO
Static
*Static
1., 1., 1e-05, 1.
** 
** BOUNDARY CONDITIONS
** 
** Name: Encastre Type: Displacement/Rotation
*Boundary
Fixed, 1, 1
Fixed, 2, 2
Fixed, 3, 3
Fixed, 4, 4
Fixed, 5, 5
Fixed, 6, 6
** 
** LOADS
** 
** Name: DistCF_0   Type: Concentrated force
*Cload
DistLoadNode_0, 1, 0.
DistLoadNode_0, 2, -0.585938
DistLoadNode_0, 3, 0.
** Name: DistCF_1   Type: Concentrated force
*Cload
DistLoadNode_1, 1, 0.
DistLoadNode_1, 2, -3.90625
DistLoadNode_1, 3, 0.
** Name: DistCF_2   Type: Concentrated force
*Cload
DistLoadNode_2, 1, 0.
DistLoadNode_2, 2, -7.8125
DistLoadNode_2, 3, 0.
** Name: DistCF_3   Type: Concentrated force
*Cload
DistLoadNode_3, 1, 0.
DistLoadNode_3, 2, -11.7188
DistLoadNode_3, 3, 0.
** Name: DistCF_4   Type: Concentrated force
*Cload
DistLoadNode_4, 1, 0.
DistLoadNode_4, 2, -15.625
DistLoadNode_4, 3, 0.
** Name: DistCF_5   Type: Concentrated force
*Cload
DistLoadNode_5, 1, 0.
DistLoadNode_5, 2, -19.5313
DistLoadNode_5, 3, 0.
** Name: DistCF_6   Type: Concentrated force
*Cload
DistLoadNode_6, 1, 0.
DistLoadNode_6, 2, -23.4375
DistLoadNode_6, 3, 0.
** Name: DistCF_7   Type: Concentrated force
*Cload
DistLoadNode_7, 1, 0.
DistLoadNode_7, 2, -27.3438
DistLoadNode_7, 3, 0.
** Name: DistCF_8   Type: Concentrated force
*Cload
DistLoadNode_8, 1, 0.
DistLoadNode_8, 2, -31.25
DistLoadNode_8, 3, 0.
** Name: DistCF_9   Type: Concentrated force
*Cload
DistLoadNode_9, 1, 0.
DistLoadNode_9, 2, -35.1563
DistLoadNode_9, 3, 0.
** Name: DistCF_10   Type: Concentrated force
*Cload
DistLoadNode_10, 1, 0.
DistLoadNode_10, 2, -39.0625
DistLoadNode_10, 3, 0.
** Name: DistCF_11   Type: Concentrated force
*Cload
DistLoadNode_11, 1, 0.
DistLoadNode_11, 2, -42.9688
DistLoadNode_11, 3, 0.
** Name: DistCF_12   Type: Concentrated force
*Cload
DistLoadNode_12, 1, 0.
DistLoadNode_12, 2, -46.875
DistLoadNode_12, 3, 0.
** Name: DistCF_13   Type: Concentrated force
*Cload
DistLoadNode_13, 1, 0.
DistLoadNode_13, 2, -50.7813
DistLoadNode_13, 3, 0.
** Name: DistCF_14   Type: Concentrated force
*Cload
DistLoadNode_14, 1, 0.
DistLoadNode_14, 2, -54.6875
DistLoadNode_14, 3, 0.
** Name: DistCF_15   Type: Concentrated force
*Cload
DistLoadNode_15, 1, 0.
DistLoadNode_15, 2, -58.5938
DistLoadNode_15, 3, 0.
** Name: DistCF_16   Type: Concentrated force
*Cload
DistLoadNode_16, 1, 0.
DistLoadNode_16, 2, -30.6641
DistLoadNode_16, 3, 0.
** 
** OUTPUT REQUESTS
** 
*Restart, write, frequency=0
** 
** FIELD OUTPUT: F-Output-1
** 
*Output, field, variable=PRESELECT
** 
** HISTORY OUTPUT: H-Output-1
** 
*Output, history, variable=PRESELECT
*End Step
