*Heading
** Job name: job_0011_n500_abaqus Model name: Model-1
** Generated by: Abaqus/CAE 2021
*Preprint, echo=NO, model=NO, history=NO, contact=NO
**
** PARTS
**
*Part, name=Beam
*Node
      1,   1.99600005,           0.,           0.
      2,           2.,           0.,           0.
      3,   1.99199998,           0.,           0.
      4,   1.98800004,           0.,           0.
      5,   1.98399997,           0.,           0.
      6,   1.98000002,           0.,           0.
      7,   1.97599995,           0.,           0.
      8,        1.972,           0.,           0.
      9,   1.96800005,           0.,           0.
     10,   1.96399999,           0.,           0.
     11,   1.96000004,           0.,           0.
     12,   1.95599997,           0.,           0.
     13,   1.95200002,           0.,           0.
     14,   1.94799995,           0.,           0.
     15,   1.94400001,           0.,           0.
     16,   1.94000006,           0.,           0.
     17,   1.93599999,           0.,           0.
     18,   1.93200004,           0.,           0.
     19,   1.92799997,           0.,           0.
     20,   1.92400002,           0.,           0.
** ... 481 like lines cut
*Element, type=B31
1, 1, 2
2, 3, 1
3, 4, 3
4, 5, 4
5, 6, 5
6, 7, 6
7, 8, 7
8, 9, 8
 9, 10,  9
10, 11, 10
11, 12, 11
12, 13, 12
13, 14, 13
14, 15, 14
15, 16, 15
16, 17, 16
17, 18, 17
18, 19, 18
19, 20, 19
20, 21, 20
** ... 480 like lines cut
*Nset, nset=BeamSet, generate
   1,  501,    1
*Elset, elset=BeamSet, generate
   1,  500,    1
** Section: BeamSection  Profile: BeamRectProfile
*Beam Section, elset=BeamSet, material=Steel, poisson = 0.3, temperature=GRADIENTS, section=RECT
0.00947291, 0.138289
0.,0.,-1.
*End Part
**  
**
** ASSEMBLY
**
*Assembly, name=Assembly
**  
*Instance, name=Beam-1, part=Beam
*End Instance
**  
*Nset, nset=DistLoadNode_0, instance=Beam-1
 1,
*Nset, nset=DistLoadNode_1, instance=Beam-1
 2,
*Nset, nset=DistLoadNode_2, instance=Beam-1
 3,
*Nset, nset=DistLoadNode_3, instance=Beam-1
 4,
*Nset, nset=DistLoadNode_4, instance=Beam-1
 5,
*Nset, nset=DistLoadNode_5, instance=Beam-1
 6,
*Nset, nset=DistLoadNode_6, instance=Beam-1
 7,
*Nset, nset=DistLoadNode_7, instance=Beam-1
 8,
*Nset, nset=DistLoadNode_8, instance=Beam-1
 9,
*Nset, nset=DistLoadNode_9, instance=Beam-1
 10,
*Nset, nset=DistLoadNode_10, instance=Beam-1
 11,
*Nset, nset=DistLoadNode_11, instance=Beam-1
 12,
*Nset, nset=DistLoadNode_12, instance=Beam-1
 13,
*Nset, nset=DistLoadNode_13, instance=Beam-1
 14,
*Nset, nset=DistLoadNode_14, instance=Beam-1
 15,
*Nset, nset=DistLoadNode_15, instance=Beam-1
 16,
*Nset, nset=DistLoadNode_16, instance=Beam-1
 17,
*Nset, nset=DistLoadNode_17, instance=Beam-1
 18,
*Nset, nset=DistLoadNode_18, instance=Beam-1
 19,
*Nset, nset=DistLoadNode_19, instance=Beam-1
 20,
** ... 962 like lines cut
*Nset, nset=Fixed, instance=Beam-1
 1,
*End Assembly
** 
** MATERIALS
** 
*Material, name=Steel
*Density
7850.,
*Elastic
 2.1e+11, 0.3
** 
** BOUNDARY CONDITIONS
** 
** Name: Encastre Type: Displacement/Rotation
*Boundary
Fixed, 1, 1
Fixed, 2, 2
Fixed, 3, 3
Fixed, 4, 4
Fixed, 5, 5
Fixed, 6, 6
** ----------------------------------------------------------------
** 
** STEP: Step-1
** 
*Step, name=Step-1, nlgeom=NO
Static
*Static
1., 1., 1e-05, 1.
** 
** BOUNDARY CONDITIONS
** 
** Name: Encastre Type: Displacement/Rotation
*Boundary
Fixed, 1, 1
Fixed, 2, 2
Fixed, 3, 3
Fixed, 4, 4
Fixed, 5, 5
Fixed, 6, 6
** 
** LOADS
** 
** Name: DistCF_0   Type: Concentrated force
*Cload
DistLoadNode_0, 1, 0.
DistLoadNode_0, 2, -5.33333e-07
DistLoadNode_0, 3, 0.
** Name: DistCF_1   Type: Concentrated force
*Cload
DistLoadNode_1, 1, 0.
DistLoadNode_1, 2, -9.06667e-06
DistLoadNode_1, 3, 0.
** Name: DistCF_2   Type: Concentrated force
*Cload
DistLoadNode_2, 1, 0.
DistLoadNode_2, 2, -3.30667e-05
DistLoadNode_2, 3, 0.
** Name: DistCF_3   Type: Concentrated force
*Cload
DistLoadNode_3, 1, 0.
DistLoadNode_3, 2, -7.30667e-05
DistLoadNode_3, 3, 0.
** Name: DistCF_4   Type: Concentrated force
*Cload
DistLoadNode_4, 1, 0.
DistLoadNode_4, 2, -0.000129067
DistLoadNode_4, 3, 0.
** Name: DistCF_5   Type: Concentrated force
*Cload
DistLoadNode_5, 1, 0.
DistLoadNode_5, 2, -0.000201067
DistLoadNode_5, 3, 0.
** Name: DistCF_6   Type: Concentrated force
*Cload
DistLoadNode_6, 1, 0.
DistLoadNode_6, 2, -0.000289067
DistLoadNode_6, 3, 0.
** Name: DistCF_7   Type: Concentrated force
*Cload
DistLoadNode_7, 1, 0.
DistLoadNode_7, 2, -0.000393067
DistLoadNode_7, 3, 0.
** Name: DistCF_8   Type: Concentrated force
*Cload
DistLoadNode_8, 1, 0.
DistLoadNode_8, 2, -0.000513067
DistLoadNode_8, 3, 0.
** Name: DistCF_9   Type: Concentrated force
*Cload
DistLoadNode_9, 1, 0.
DistLoadNode_9, 2, -0.000649067
DistLoadNode_9, 3, 0.
** Name: DistCF_10   Type: Concentrated force
*Cload
DistLoadNode_10, 1, 0.
DistLoadNode_10, 2, -0.000801067
DistLoadNode_10, 3, 0.
** Name: DistCF_11   Type: Concentrated force
*Cload
DistLoadNode_11, 1, 0.
DistLoadNode_11, 2, -0.000969067
DistLoadNode_11, 3, 0.
** Name: DistCF_12   Type: Concentrated force
*Cload
DistLoadNode_12, 1, 0.
DistLoadNode_12, 2, -0.00115307
DistLoadNode_12, 3, 0.
** Name: DistCF_13   Type: Concentrated force
*Cload
DistLoadNode_13, 1, 0.
DistLoadNode_13, 2, -0.00135307
DistLoadNode_13, 3, 0.
** Name: DistCF_14   Type: Concentrated force
*Cload
DistLoadNode_14, 1, 0.
DistLoadNode_14, 2, -0.00156907
DistLoadNode_14, 3, 0.
** Name: DistCF_15   Type: Concentrated force
*Cload
DistLoadNode_15, 1, 0.
DistLoadNode_15, 2, -0.00180107
DistLoadNode_15, 3, 0.
** Name: DistCF_16   Type: Concentrated force
*Cload
DistLoadNode_16, 1, 0.
DistLoadNode_16, 2, -0.00204907
DistLoadNode_16, 3, 0.
** Name: DistCF_17   Type: Concentrated force
*Cload
DistLoadNode_17, 1, 0.
DistLoadNode_17, 2, -0.00231307
DistLoadNode_17, 3, 0.
** Name: DistCF_18   Type: Concentrated force
*Cload
DistLoadNode_18, 1, 0.
DistLoadNode_18, 2, -0.00259307
DistLoadNode_18, 3, 0.
** Name: DistCF_19   Type: Concentrated force
*Cload
DistLoadNode_19, 1, 0.
DistLoadNode_19, 2, -0.00288907
DistLoadNode_19, 3, 0.
** Name: DistCF_20   Type: Concentrated force
*Cload
DistLoadNode_20, 1, 0.
DistLoadNode_20, 2, -0.00320107
DistLoadNode_20, 3, 0.
** Name: DistCF_21   Type: Concentrated force
*Cload
DistLoadNode_21, 1, 0.
DistLoadNode_21, 2, -0.00352907
DistLoadNode_21, 3, 0.
** Name: DistCF_22   Type: Concentrated force
*Cload
DistLoadNode_22, 1, 0.
DistLoadNode_22, 2, -0.00387307
DistLoadNode_22, 3, 0.
** Name: DistCF_23   Type: Concentrated force
*Cload
DistLoadNode_23, 1, 0.
DistLoadNode_23, 2, -0.00423307
DistLoadNode_23, 3, 0.
** Name: DistCF_24   Type: Concentrated force
*Cload
DistLoadNode_24, 1, 0.
DistLoadNode_24, 2, -0.00460907
DistLoadNode_24, 3, 0.
** Name: DistCF_25   Type: Concentrated force
*Cload
DistLoadNode_25, 1, 0.
DistLoadNode_25, 2, -0.00500107
DistLoadNode_25, 3, 0.
** Name: DistCF_26   Type: Concentrated force
*Cload
DistLoadNode_26, 1, 0.
DistLoadNode_26, 2, -0.00540907
DistLoadNode_26, 3, 0.
** Name: DistCF_27   Type: Concentrated force
*Cload
DistLoadNode_27, 1, 0.
DistLoadNode_27, 2, -0.00583307
DistLoadNode_27, 3, 0.
** Name: DistCF_28   Type: Concentrated force
*Cload
DistLoadNode_28, 1, 0.
DistLoadNode_28, 2, -0.00627307
DistLoadNode_28, 3, 0.
** Name: DistCF_29   Type: Concentrated force
*Cload
DistLoadNode_29, 1, 0.
DistLoadNode_29, 2, -0.00672907
DistLoadNode_29, 3, 0.
** Name: DistCF_30   Type: Concentrated force
*Cload
DistLoadNode_30, 1, 0.
DistLoadNode_30, 2, -0.00720107
DistLoadNode_30, 3, 0.
** Name: DistCF_31   Type: Concentrated force
*Cload
DistLoadNode_31, 1, 0.
DistLoadNode_31, 2, -0.00768907
DistLoadNode_31, 3, 0.
** Name: DistCF_32   Type: Concentrated force
*Cload
DistLoadNode_32, 1, 0.
DistLoadNode_32, 2, -0.00819307
DistLoadNode_32, 3, 0.
** Name: DistCF_33   Type: Concentrated force
*Cload
DistLoadNode_33, 1, 0.
DistLoadNode_33, 2, -0.00871307
DistLoadNode_33, 3, 0.
** Name: DistCF_34   Type: Concentrated force
*Cload
DistLoadNode_34, 1, 0.
DistLoadNode_34, 2, -0.00924907
DistLoadNode_34, 3, 0.
** Name: DistCF_35   Type: Concentrated force
*Cload
DistLoadNode_35, 1, 0.
DistLoadNode_35, 2, -0.00980107
DistLoadNode_35, 3, 0.
** Name: DistCF_36   Type: Concentrated force
*Cload
DistLoadNode_36, 1, 0.
DistLoadNode_36, 2, -0.0103691
DistLoadNode_36, 3, 0.
** Name: DistCF_37   Type: Concentrated force
*Cload
DistLoadNode_37, 1, 0.
DistLoadNode_37, 2, -0.0109531
DistLoadNode_37, 3, 0.
** Name: DistCF_38   Type: Concentrated force
*Cload
DistLoadNode_38, 1, 0.
DistLoadNode_38, 2, -0.0115531
DistLoadNode_38, 3, 0.
** Name: DistCF_39   Type: Concentrated force
*Cload
DistLoadNode_39, 1, 0.
DistLoadNode_39, 2, -0.0121691
DistLoadNode_39, 3, 0.
** Name: DistCF_40   Type: Concentrated force
*Cload
DistLoadNode_40, 1, 0.
DistLoadNode_40, 2, -0.0128011
DistLoadNode_40, 3, 0.
** Name: DistCF_41   Type: Concentrated force
*Cload
DistLoadNode_41, 1, 0.
DistLoadNode_41, 2, -0.0134491
DistLoadNode_41, 3, 0.
** Name: DistCF_42   Type: Concentrated force
*Cload
DistLoadNode_42, 1, 0.
DistLoadNode_42, 2, -0.0141131
DistLoadNode_42, 3, 0.
** Name: DistCF_43   Type: Concentrated force
*Cload
DistLoadNode_43, 1, 0.
DistLoadNode_43, 2, -0.0147931
DistLoadNode_43, 3, 0.
** Name: DistCF_44   Type: Concentrated force
*Cload
DistLoadNode_44, 1, 0.
DistLoadNode_44, 2, -0.0154891
DistLoadNode_44, 3, 0.
** Name: DistCF_45   Type: Concentrated force
*Cload
DistLoadNode_45, 1, 0.
DistLoadNode_45, 2, -0.0162011
DistLoadNode_45, 3, 0.
** Name: DistCF_46   Type: Concentrated force
*Cload
DistLoadNode_46, 1, 0.
DistLoadNode_46, 2, -0.0169291
DistLoadNode_46, 3, 0.
** Name: DistCF_47   Type: Concentrated force
*Cload
DistLoadNode_47, 1, 0.
DistLoadNode_47, 2, -0.0176731
DistLoadNode_47, 3, 0.
** Name: DistCF_48   Type: Concentrated force
*Cload
DistLoadNode_48, 1, 0.
DistLoadNode_48, 2, -0.0184331
DistLoadNode_48, 3, 0.
** Name: DistCF_49   Type: Concentrated force
*Cload
DistLoadNode_49, 1, 0.
DistLoadNode_49, 2, -0.0192091
DistLoadNode_49, 3, 0.
** Name: DistCF_50   Type: Concentrated force
*Cload
DistLoadNode_50, 1, 0.
DistLoadNode_50, 2, -0.0200011
DistLoadNode_50, 3, 0.
** Name: DistCF_51   Type: Concentrated force
*Cload
DistLoadNode_51, 1, 0.
DistLoadNode_51, 2, -0.0208091
DistLoadNode_51, 3, 0.
** Name: DistCF_52   Type: Concentrated force
*Cload
DistLoadNode_52, 1, 0.
DistLoadNode_52, 2, -0.0216331
DistLoadNode_52, 3, 0.
** Name: DistCF_53   Type: Concentrated force
*Cload
DistLoadNode_53, 1, 0.
DistLoadNode_53, 2, -0.0224731
DistLoadNode_53, 3, 0.
** Name: DistCF_54   Type: Concentrated force
*Cload
DistLoadNode_54, 1, 0.
DistLoadNode_54, 2, -0.0233291
DistLoadNode_54, 3, 0.
** Name: DistCF_55   Type: Concentrated force
*Cload
DistLoadNode_55, 1, 0.
DistLoadNode_55, 2, -0.0242011
DistLoadNode_55, 3, 0.
** Name: DistCF_56   Type: Concentrated force
*Cload
DistLoadNode_56, 1, 0.
DistLoadNode_56, 2, -0.0250891
DistLoadNode_56, 3, 0.
** Name: DistCF_57   Type: Concentrated force
*Cload
DistLoadNode_57, 1, 0.
DistLoadNode_57, 2, -0.0259931
DistLoadNode_57, 3, 0.
** Name: DistCF_58   Type: Concentrated force
*Cload
DistLoadNode_58, 1, 0.
DistLoadNode_58, 2, -0.0269131
DistLoadNode_58, 3, 0.
** Name: DistCF_59   Type: Concentrated force
*Cload
DistLoadNode_59, 1, 0.
DistLoadNode_59, 2, -0.0278491
DistLoadNode_59, 3, 0.
** Name: DistCF_60   Type: Concentrated force
*Cload
DistLoadNode_60, 1, 0.
DistLoadNode_60, 2, -0.0288011
DistLoadNode_60, 3, 0.
** Name: DistCF_61   Type: Concentrated force
*Cload
DistLoadNode_61, 1, 0.
DistLoadNode_61, 2, -0.0297691
DistLoadNode_61, 3, 0.
** Name: DistCF_62   Type: Concentrated force
*Cload
DistLoadNode_62, 1, 0.
DistLoadNode_62, 2, -0.0307531
DistLoadNode_62, 3, 0.
** Name: DistCF_63   Type: Concentrated force
*Cload
DistLoadNode_63, 1, 0.
DistLoadNode_63, 2, -0.0317531
DistLoadNode_63, 3, 0.
** Name: DistCF_64   Type: Concentrated force
*Cload
DistLoadNode_64, 1, 0.
DistLoadNode_64, 2, -0.0327691
DistLoadNode_64, 3, 0.
** Name: DistCF_65   Type: Concentrated force
*Cload
DistLoadNode_65, 1, 0.
DistLoadNode_65, 2, -0.0338011
DistLoadNode_65, 3, 0.
** Name: DistCF_66   Type: Concentrated force
*Cload
DistLoadNode_66, 1, 0.
DistLoadNode_66, 2, -0.0348491
DistLoadNode_66, 3, 0.
** Name: DistCF_67   Type: Concentrated force
*Cload
DistLoadNode_67, 1, 0.
DistLoadNode_67, 2, -0.0359131
DistLoadNode_67, 3, 0.
** Name: DistCF_68   Type: Concentrated force
*Cload
DistLoadNode_68, 1, 0.
DistLoadNode_68, 2, -0.0369931
DistLoadNode_68, 3, 0.
** Name: DistCF_69   Type: Concentrated force
*Cload
DistLoadNode_69, 1, 0.
DistLoadNode_69, 2, -0.0380891
DistLoadNode_69, 3, 0.
** Name: DistCF_70   Type: Concentrated force
*Cload
DistLoadNode_70, 1, 0.
DistLoadNode_70, 2, -0.0392011
DistLoadNode_70, 3, 0.
** Name: DistCF_71   Type: Concentrated force
*Cload
DistLoadNode_71, 1, 0.
DistLoadNode_71, 2, -0.0403291
DistLoadNode_71, 3, 0.
** Name: DistCF_72   Type: Concentrated force
*Cload
DistLoadNode_72, 1, 0.
DistLoadNode_72, 2, -0.0414731
DistLoadNode_72, 3, 0.
** Name: DistCF_73   Type: Concentrated force
*Cload
DistLoadNode_73, 1, 0.
DistLoadNode_73, 2, -0.0426331
DistLoadNode_73, 3, 0.
** Name: DistCF_74   Type: Concentrated force
*Cload
DistLoadNode_74, 1, 0.
DistLoadNode_74, 2, -0.0438091
DistLoadNode_74, 3, 0.
** Name: DistCF_75   Type: Concentrated force
*Cload
DistLoadNode_75, 1, 0.
DistLoadNode_75, 2, -0.0450011
DistLoadNode_75, 3, 0.
** Name: DistCF_76   Type: Concentrated force
*Cload
DistLoadNode_76, 1, 0.
DistLoadNode_76, 2, -0.0462091
DistLoadNode_76, 3, 0.
** Name: DistCF_77   Type: Concentrated force
*Cload
DistLoadNode_77, 1, 0.
DistLoadNode_77, 2, -0.0474331
DistLoadNode_77, 3, 0.
** Name: DistCF_78   Type: Concentrated force
*Cload
DistLoadNode_78, 1, 0.
DistLoadNode_78, 2, -0.0486731
DistLoadNode_78, 3, 0.
** Name: DistCF_79   Type: Concentrated force
*Cload
DistLoadNode_79, 1, 0.
DistLoadNode_79, 2, -0.0499291
DistLoadNode_79, 3, 0.
** Name: DistCF_80   Type: Concentrated force
*Cload
DistLoadNode_80, 1, 0.
DistLoadNode_80, 2, -0.0512011
DistLoadNode_80, 3, 0.
** Name: DistCF_81   Type: Concentrated force
*Cload
DistLoadNode_81, 1, 0.
DistLoadNode_81, 2, -0.0524891
DistLoadNode_81, 3, 0.
** Name: DistCF_82   Type: Concentrated force
*Cload
DistLoadNode_82, 1, 0.
DistLoadNode_82, 2, -0.0537931
DistLoadNode_82, 3, 0.
** Name: DistCF_83   Type: Concentrated force
*Cload
DistLoadNode_83, 1, 0.
DistLoadNode_83, 2, -0.0551131
DistLoadNode_83, 3, 0.
** Name: DistCF_84   Type: Concentrated force
*Cload
DistLoadNode_84, 1, 0.
DistLoadNode_84, 2, -0.0564491
DistLoadNode_84, 3, 0.
** Name: DistCF_85   Type: Concentrated force
*Cload
DistLoadNode_85, 1, 0.
DistLoadNode_85, 2, -0.0578011
DistLoadNode_85, 3, 0.
** Name: DistCF_86   Type: Concentrated force
*Cload
DistLoadNode_86, 1, 0.
DistLoadNode_86, 2, -0.0591691
DistLoadNode_86, 3, 0.
** Name: DistCF_87   Type: Concentrated force
*Cload
DistLoadNode_87, 1, 0.
DistLoadNode_87, 2, -0.0605531
DistLoadNode_87, 3, 0.
** Name: DistCF_88   Type: Concentrated force
*Cload
DistLoadNode_88, 1, 0.
DistLoadNode_88, 2, -0.0619531
DistLoadNode_88, 3, 0.
** Name: DistCF_89   Type: Concentrated force
*Cload
DistLoadNode_89, 1, 0.
DistLoadNode_89, 2, -0.0633691
DistLoadNode_89, 3, 0.
** Name: DistCF_90   Type: Concentrated force
*Cload
DistLoadNode_90, 1, 0.
DistLoadNode_90, 2, -0.0648011
DistLoadNode_90, 3, 0.
** Name: DistCF_91   Type: Concentrated force
*Cload
DistLoadNode_91, 1, 0.
DistLoadNode_91, 2, -0.0662491
DistLoadNode_91, 3, 0.
** Name: DistCF_92   Type: Concentrated force
*Cload
DistLoadNode_92, 1, 0.
DistLoadNode_92, 2, -0.0677131
DistLoadNode_92, 3, 0.
** Name: DistCF_93   Type: Concentrated force
*Cload
DistLoadNode_93, 1, 0.
DistLoadNode_93, 2, -0.0691931
DistLoadNode_93, 3, 0.
** Name: DistCF_94   Type: Concentrated force
*Cload
DistLoadNode_94, 1, 0.
DistLoadNode_94, 2, -0.0706891
DistLoadNode_94, 3, 0.
** Name: DistCF_95   Type: Concentrated force
*Cload
DistLoadNode_95, 1, 0.
DistLoadNode_95, 2, -0.0722011
DistLoadNode_95, 3, 0.
** Name: DistCF_96   Type: Concentrated force
*Cload
DistLoadNode_96, 1, 0.
DistLoadNode_96, 2, -0.0737291
DistLoadNode_96, 3, 0.
** Name: DistCF_97   Type: Concentrated force
*Cload
DistLoadNode_97, 1, 0.
DistLoadNode_97, 2, -0.0752731
DistLoadNode_97, 3, 0.
** Name: DistCF_98   Type: Concentrated force
*Cload
DistLoadNode_98, 1, 0.
DistLoadNode_98, 2, -0.0768331
DistLoadNode_98, 3, 0.
** Name: DistCF_99   Type: Concentrated force
*Cload
DistLoadNode_99, 1, 0.
DistLoadNode_99, 2, -0.0784091
DistLoadNode_99, 3, 0.
** Name: DistCF_100   Type: Concentrated force
*Cload
DistLoadNode_100, 1, 0.
DistLoadNode_100, 2, -0.0800011
DistLoadNode_100, 3, 0.
** Name: DistCF_101   Type: Concentrated force
*Cload
DistLoadNode_101, 1, 0.
DistLoadNode_101, 2, -0.0816091
DistLoadNode_101, 3, 0.
** Name: DistCF_102   Type: Concentrated force
*Cload
DistLoadNode_102, 1, 0.
DistLoadNode_102, 2, -0.0832331
DistLoadNode_102, 3, 0.
** Name: DistCF_103   Type: Concentrated force
*Cload
DistLoadNode_103, 1, 0.
DistLoadNode_103, 2, -0.0848731
DistLoadNode_103, 3, 0.
** Name: DistCF_104   Type: Concentrated force
*Cload
DistLoadNode_104, 1, 0.
DistLoadNode_104, 2, -0.0865291
DistLoadNode_104, 3, 0.
** Name: DistCF_105   Type: Concentrated force
*Cload
DistLoadNode_105, 1, 0.
DistLoadNode_105, 2, -0.0882011
DistLoadNode_105, 3, 0.
** Name: DistCF_106   Type: Concentrated force
*Cload
DistLoadNode_106, 1, 0.
DistLoadNode_106, 2, -0.0898891
DistLoadNode_106, 3, 0.
** Name: DistCF_107   Type: Concentrated force
*Cload
DistLoadNode_107, 1, 0.
DistLoadNode_107, 2, -0.0915931
DistLoadNode_107, 3, 0.
** Name: DistCF_108   Type: Concentrated force
*Cload
DistLoadNode_108, 1, 0.
DistLoadNode_108, 2, -0.0933131
DistLoadNode_108, 3, 0.
** Name: DistCF_109   Type: Concentrated force
*Cload
DistLoadNode_109, 1, 0.
DistLoadNode_109, 2, -0.0950491
DistLoadNode_109, 3, 0.
** Name: DistCF_110   Type: Concentrated force
*Cload
DistLoadNode_110, 1, 0.
DistLoadNode_110, 2, -0.0968011
DistLoadNode_110, 3, 0.
** Name: DistCF_111   Type: Concentrated force
*Cload
DistLoadNode_111, 1, 0.
DistLoadNode_111, 2, -0.0985691
DistLoadNode_111, 3, 0.
** Name: DistCF_112   Type: Concentrated force
*Cload
DistLoadNode_112, 1, 0.
DistLoadNode_112, 2, -0.100353
DistLoadNode_112, 3, 0.
** Name: DistCF_113   Type: Concentrated force
*Cload
DistLoadNode_113, 1, 0.
DistLoadNode_113, 2, -0.102153
DistLoadNode_113, 3, 0.
** Name: DistCF_114   Type: Concentrated force
*Cload
DistLoadNode_114, 1, 0.
DistLoadNode_114, 2, -0.103969
DistLoadNode_114, 3, 0.
** Name: DistCF_115   Type: Concentrated force
*Cload
DistLoadNode_115, 1, 0.
DistLoadNode_115, 2, -0.105801
DistLoadNode_115, 3, 0.
** Name: DistCF_116   Type: Concentrated force
*Cload
DistLoadNode_116, 1, 0.
DistLoadNode_116, 2, -0.107649
DistLoadNode_116, 3, 0.
** Name: DistCF_117   Type: Concentrated force
*Cload
DistLoadNode_117, 1, 0.
DistLoadNode_117, 2, -0.109513
DistLoadNode_117, 3, 0.
** Name: DistCF_118   Type: Concentrated force
*Cload
DistLoadNode_118, 1, 0.
DistLoadNode_118, 2, -0.111393
DistLoadNode_118, 3, 0.
** Name: DistCF_119   Type: Concentrated force
*Cload
DistLoadNode_119, 1, 0.
DistLoadNode_119, 2, -0.113289
DistLoadNode_119, 3, 0.
** Name: DistCF_120   Type: Concentrated force
*Cload
DistLoadNode_120, 1, 0.
DistLoadNode_120, 2, -0.115201
DistLoadNode_120, 3, 0.
** Name: DistCF_121   Type: Concentrated force
*Cload
DistLoadNode_121, 1, 0.
DistLoadNode_121, 2, -0.117129
DistLoadNode_121, 3, 0.
** Name: DistCF_122   Type: Concentrated force
*Cload
DistLoadNode_122, 1, 0.
DistLoadNode_122, 2, -0.119073
DistLoadNode_122, 3, 0.
** Name: DistCF_123   Type: Concentrated force
*Cload
DistLoadNode_123, 1, 0.
DistLoadNode_123, 2, -0.121033
DistLoadNode_123, 3, 0.
** Name: DistCF_124   Type: Concentrated force
*Cload
DistLoadNode_124, 1, 0.
DistLoadNode_124, 2, -0.123009
DistLoadNode_124, 3, 0.
** Name: DistCF_125   Type: Concentrated force
*Cload
DistLoadNode_125, 1, 0.
DistLoadNode_125, 2, -0.125001
DistLoadNode_125, 3, 0.
** Name: DistCF_126   Type: Concentrated force
*Cload
DistLoadNode_126, 1, 0.
DistLoadNode_126, 2, -0.127009
DistLoadNode_126, 3, 0.
** Name: DistCF_127   Type: Concentrated force
*Cload
DistLoadNode_127, 1, 0.
DistLoadNode_127, 2, -0.129033
DistLoadNode_127, 3, 0.
** Name: DistCF_128   Type: Concentrated force
*Cload
DistLoadNode_128, 1, 0.
DistLoadNode_128, 2, -0.131073
DistLoadNode_128, 3, 0.
** Name: DistCF_129   Type: Concentrated force
*Cload
DistLoadNode_129, 1, 0.
DistLoadNode_129, 2, -0.133129
DistLoadNode_129, 3, 0.
** Name: DistCF_130   Type: Concentrated force
*Cload
DistLoadNode_130, 1, 0.
DistLoadNode_130, 2, -0.135201
DistLoadNode_130, 3, 0.
** Name: DistCF_131   Type: Concentrated force
*Cload
DistLoadNode_131, 1, 0.
DistLoadNode_131, 2, -0.137289
DistLoadNode_131, 3, 0.
** Name: DistCF_132   Type: Concentrated force
*Cload
DistLoadNode_132, 1, 0.
DistLoadNode_132, 2, -0.139393
DistLoadNode_132, 3, 0.
** Name: DistCF_133   Type: Concentrated force
*Cload
DistLoadNode_133, 1, 0.
DistLoadNode_133, 2, -0.141513
DistLoadNode_133, 3, 0.
** Name: DistCF_134   Type: Concentrated force
*Cload
DistLoadNode_134, 1, 0.
DistLoadNode_134, 2, -0.143649
DistLoadNode_134, 3, 0.
** Name: DistCF_135   Type: Concentrated force
*Cload
DistLoadNode_135, 1, 0.
DistLoadNode_135, 2, -0.145801
DistLoadNode_135, 3, 0.
** Name: DistCF_136   Type: Concentrated force
*Cload
DistLoadNode_136, 1, 0.
DistLoadNode_136, 2, -0.147969
DistLoadNode_136, 3, 0.
** Name: DistCF_137   Type: Concentrated force
*Cload
DistLoadNode_137, 1, 0.
DistLoadNode_137, 2, -0.150153
DistLoadNode_137, 3, 0.
** Name: DistCF_138   Type: Concentrated force
*Cload
DistLoadNode_138, 1, 0.
DistLoadNode_138, 2, -0.152353
DistLoadNode_138, 3, 0.
** Name: DistCF_139   Type: Concentrated force
*Cload
DistLoadNode_139, 1, 0.
DistLoadNode_139, 2, -0.154569
DistLoadNode_139, 3, 0.
** Name: DistCF_140   Type: Concentrated force
*Cload
DistLoadNode_140, 1, 0.
DistLoadNode_140, 2, -0.156801
DistLoadNode_140, 3, 0.
** Name: DistCF_141   Type: Concentrated force
*Cload
DistLoadNode_141, 1, 0.
DistLoadNode_141, 2, -0.159049
DistLoadNode_141, 3, 0.
** Name: DistCF_142   Type: Concentrated force
*Cload
DistLoadNode_142, 1, 0.
DistLoadNode_142, 2, -0.161313
DistLoadNode_142, 3, 0.
** Name: DistCF_143   Type: Concentrated force
*Cload
DistLoadNode_143, 1, 0.
DistLoadNode_143, 2, -0.163593
DistLoadNode_143, 3, 0.
** Name: DistCF_144   Type: Concentrated force
*Cload
DistLoadNode_144, 1, 0.
DistLoadNode_144, 2, -0.165889
DistLoadNode_144, 3, 0.
** Name: DistCF_145   Type: Concentrated force
*Cload
DistLoadNode_145, 1, 0.
DistLoadNode_145, 2, -0.168201
DistLoadNode_145, 3, 0.
** Name: DistCF_146   Type: Concentrated force
*Cload
DistLoadNode_146, 1, 0.
DistLoadNode_146, 2, -0.170529
DistLoadNode_146, 3, 0.
** Name: DistCF_147   Type: Concentrated force
*Cload
DistLoadNode_147, 1, 0.
DistLoadNode_147, 2, -0.172873
DistLoadNode_147, 3, 0.
** Name: DistCF_148   Type: Concentrated force
*Cload
DistLoadNode_148, 1, 0.
DistLoadNode_148, 2, -0.175233
DistLoadNode_148, 3, 0.
** Name: DistCF_149   Type: Concentrated force
*Cload
DistLoadNode_149, 1, 0.
DistLoadNode_149, 2, -0.177609
DistLoadNode_149, 3, 0.
** Name: DistCF_150   Type: Concentrated force
*Cload
DistLoadNode_150, 1, 0.
DistLoadNode_150, 2, -0.180001
DistLoadNode_150, 3, 0.
** Name: DistCF_151   Type: Concentrated force
*Cload
DistLoadNode_151, 1, 0.
DistLoadNode_151, 2, -0.182409
DistLoadNode_151, 3, 0.
** Name: DistCF_152   Type: Concentrated force
*Cload
DistLoadNode_152, 1, 0.
DistLoadNode_152, 2, -0.184833
DistLoadNode_152, 3, 0.
** Name: DistCF_153   Type: Concentrated force
*Cload
DistLoadNode_153, 1, 0.
DistLoadNode_153, 2, -0.187273
DistLoadNode_153, 3, 0.
** Name: DistCF_154   Type: Concentrated force
*Cload
DistLoadNode_154, 1, 0.
DistLoadNode_154, 2, -0.189729
DistLoadNode_154, 3, 0.
** Name: DistCF_155   Type: Concentrated force
*Cload
DistLoadNode_155, 1, 0.
DistLoadNode_155, 2, -0.192201
DistLoadNode_155, 3, 0.
** Name: DistCF_156   Type: Concentrated force
*Cload
DistLoadNode_156, 1, 0.
DistLoadNode_156, 2, -0.194689
DistLoadNode_156, 3, 0.
** Name: DistCF_157   Type: Concentrated force
*Cload
DistLoadNode_157, 1, 0.
DistLoadNode_157, 2, -0.197193
DistLoadNode_157, 3, 0.
** Name: DistCF_158   Type: Concentrated force
*Cload
DistLoadNode_158, 1, 0.
DistLoadNode_158, 2, -0.199713
DistLoadNode_158, 3, 0.
** Name: DistCF_159   Type: Concentrated force
*Cload
DistLoadNode_159, 1, 0.
DistLoadNode_159, 2, -0.202249
DistLoadNode_159, 3, 0.
** Name: DistCF_160   Type: Concentrated force
*Cload
DistLoadNode_160, 1, 0.
DistLoadNode_160, 2, -0.204801
DistLoadNode_160, 3, 0.
** Name: DistCF_161   Type: Concentrated force
*Cload
DistLoadNode_161, 1, 0.
DistLoadNode_161, 2, -0.207369
DistLoadNode_161, 3, 0.
** Name: DistCF_162   Type: Concentrated force
*Cload
DistLoadNode_162, 1, 0.
DistLoadNode_162, 2, -0.209953
DistLoadNode_162, 3, 0.
** Name: DistCF_163   Type: Concentrated force
*Cload
DistLoadNode_163, 1, 0.
DistLoadNode_163, 2, -0.212553
DistLoadNode_163, 3, 0.
** Name: DistCF_164   Type: Concentrated force
*Cload
DistLoadNode_164, 1, 0.
DistLoadNode_164, 2, -0.215169
DistLoadNode_164, 3, 0.
** Name: DistCF_165   Type: Concentrated force
*Cload
DistLoadNode_165, 1, 0.
DistLoadNode_165, 2, -0.217801
DistLoadNode_165, 3, 0.
** Name: DistCF_166   Type: Concentrated force
*Cload
DistLoadNode_166, 1, 0.
DistLoadNode_166, 2, -0.220449
DistLoadNode_166, 3, 0.
** Name: DistCF_167   Type: Concentrated force
*Cload
DistLoadNode_167, 1, 0.
DistLoadNode_167, 2, -0.223113
DistLoadNode_167, 3, 0.
** Name: DistCF_168   Type: Concentrated force
*Cload
DistLoadNode_168, 1, 0.
DistLoadNode_168, 2, -0.225793
DistLoadNode_168, 3, 0.
** Name: DistCF_169   Type: Concentrated force
*Cload
DistLoadNode_169, 1, 0.
DistLoadNode_169, 2, -0.228489
DistLoadNode_169, 3, 0.
** Name: DistCF_170   Type: Concentrated force
*Cload
DistLoadNode_170, 1, 0.
DistLoadNode_170, 2, -0.231201
DistLoadNode_170, 3, 0.
** Name: DistCF_171   Type: Concentrated force
*Cload
DistLoadNode_171, 1, 0.
DistLoadNode_171, 2, -0.233929
DistLoadNode_171, 3, 0.
** Name: DistCF_172   Type: Concentrated force
*Cload
DistLoadNode_172, 1, 0.
DistLoadNode_172, 2, -0.236673
DistLoadNode_172, 3, 0.
** Name: DistCF_173   Type: Concentrated force
*Cload
DistLoadNode_173, 1, 0.
DistLoadNode_173, 2, -0.239433
DistLoadNode_173, 3, 0.
** Name: DistCF_174   Type: Concentrated force
*Cload
DistLoadNode_174, 1, 0.
DistLoadNode_174, 2, -0.242209
DistLoadNode_174, 3, 0.
** Name: DistCF_175   Type: Concentrated force
*Cload
DistLoadNode_175, 1, 0.
DistLoadNode_175, 2, -0.245001
DistLoadNode_175, 3, 0.
** Name: DistCF_176   Type: Concentrated force
*Cload
DistLoadNode_176, 1, 0.
DistLoadNode_176, 2, -0.247809
DistLoadNode_176, 3, 0.
** Name: DistCF_177   Type: Concentrated force
*Cload
DistLoadNode_177, 1, 0.
DistLoadNode_177, 2, -0.250633
DistLoadNode_177, 3, 0.
** Name: DistCF_178   Type: Concentrated force
*Cload
DistLoadNode_178, 1, 0.
DistLoadNode_178, 2, -0.253473
DistLoadNode_178, 3, 0.
** Name: DistCF_179   Type: Concentrated force
*Cload
DistLoadNode_179, 1, 0.
DistLoadNode_179, 2, -0.256329
DistLoadNode_179, 3, 0.
** Name: DistCF_180   Type: Concentrated force
*Cload
DistLoadNode_180, 1, 0.
DistLoadNode_180, 2, -0.259201
DistLoadNode_180, 3, 0.
** Name: DistCF_181   Type: Concentrated force
*Cload
DistLoadNode_181, 1, 0.
DistLoadNode_181, 2, -0.262089
DistLoadNode_181, 3, 0.
** Name: DistCF_182   Type: Concentrated force
*Cload
DistLoadNode_182, 1, 0.
DistLoadNode_182, 2, -0.264993
DistLoadNode_182, 3, 0.
** Name: DistCF_183   Type: Concentrated force
*Cload
DistLoadNode_183, 1, 0.
DistLoadNode_183, 2, -0.267913
DistLoadNode_183, 3, 0.
** Name: DistCF_184   Type: Concentrated force
*Cload
DistLoadNode_184, 1, 0.
DistLoadNode_184, 2, -0.270849
DistLoadNode_184, 3, 0.
** Name: DistCF_185   Type: Concentrated force
*Cload
DistLoadNode_185, 1, 0.
DistLoadNode_185, 2, -0.273801
DistLoadNode_185, 3, 0.
** Name: DistCF_186   Type: Concentrated force
*Cload
DistLoadNode_186, 1, 0.
DistLoadNode_186, 2, -0.276769
DistLoadNode_186, 3, 0.
** Name: DistCF_187   Type: Concentrated force
*Cload
DistLoadNode_187, 1, 0.
DistLoadNode_187, 2, -0.279753
DistLoadNode_187, 3, 0.
** Name: DistCF_188   Type: Concentrated force
*Cload
DistLoadNode_188, 1, 0.
DistLoadNode_188, 2, -0.282753
DistLoadNode_188, 3, 0.
** Name: DistCF_189   Type: Concentrated force
*Cload
DistLoadNode_189, 1, 0.
DistLoadNode_189, 2, -0.285769
DistLoadNode_189, 3, 0.
** Name: DistCF_190   Type: Concentrated force
*Cload
DistLoadNode_190, 1, 0.
DistLoadNode_190, 2, -0.288801
DistLoadNode_190, 3, 0.
** Name: DistCF_191   Type: Concentrated force
*Cload
DistLoadNode_191, 1, 0.
DistLoadNode_191, 2, -0.291849
DistLoadNode_191, 3, 0.
** Name: DistCF_192   Type: Concentrated force
*Cload
DistLoadNode_192, 1, 0.
DistLoadNode_192, 2, -0.294913
DistLoadNode_192, 3, 0.
** Name: DistCF_193   Type: Concentrated force
*Cload
DistLoadNode_193, 1, 0.
DistLoadNode_193, 2, -0.297993
DistLoadNode_193, 3, 0.
** Name: DistCF_194   Type: Concentrated force
*Cload
DistLoadNode_194, 1, 0.
DistLoadNode_194, 2, -0.301089
DistLoadNode_194, 3, 0.
** Name: DistCF_195   Type: Concentrated force
*Cload
DistLoadNode_195, 1, 0.
DistLoadNode_195, 2, -0.304201
DistLoadNode_195, 3, 0.
** Name: DistCF_196   Type: Concentrated force
*Cload
DistLoadNode_196, 1, 0.
DistLoadNode_196, 2, -0.307329
DistLoadNode_196, 3, 0.
** Name: DistCF_197   Type: Concentrated force
*Cload
DistLoadNode_197, 1, 0.
DistLoadNode_197, 2, -0.310473
DistLoadNode_197, 3, 0.
** Name: DistCF_198   Type: Concentrated force
*Cload
DistLoadNode_198, 1, 0.
DistLoadNode_198, 2, -0.313633
DistLoadNode_198, 3, 0.
** Name: DistCF_199   Type: Concentrated force
*Cload
DistLoadNode_199, 1, 0.
DistLoadNode_199, 2, -0.316809
DistLoadNode_199, 3, 0.
** Name: DistCF_200   Type: Concentrated force
*Cload
DistLoadNode_200, 1, 0.
DistLoadNode_200, 2, -0.320001
DistLoadNode_200, 3, 0.
** Name: DistCF_201   Type: Concentrated force
*Cload
DistLoadNode_201, 1, 0.
DistLoadNode_201, 2, -0.323209
DistLoadNode_201, 3, 0.
** Name: DistCF_202   Type: Concentrated force
*Cload
DistLoadNode_202, 1, 0.
DistLoadNode_202, 2, -0.326433
DistLoadNode_202, 3, 0.
** Name: DistCF_203   Type: Concentrated force
*Cload
DistLoadNode_203, 1, 0.
DistLoadNode_203, 2, -0.329673
DistLoadNode_203, 3, 0.
** Name: DistCF_204   Type: Concentrated force
*Cload
DistLoadNode_204, 1, 0.
DistLoadNode_204, 2, -0.332929
DistLoadNode_204, 3, 0.
** Name: DistCF_205   Type: Concentrated force
*Cload
DistLoadNode_205, 1, 0.
DistLoadNode_205, 2, -0.336201
DistLoadNode_205, 3, 0.
** Name: DistCF_206   Type: Concentrated force
*Cload
DistLoadNode_206, 1, 0.
DistLoadNode_206, 2, -0.339489
DistLoadNode_206, 3, 0.
** Name: DistCF_207   Type: Concentrated force
*Cload
DistLoadNode_207, 1, 0.
DistLoadNode_207, 2, -0.342793
DistLoadNode_207, 3, 0.
** Name: DistCF_208   Type: Concentrated force
*Cload
DistLoadNode_208, 1, 0.
DistLoadNode_208, 2, -0.346113
DistLoadNode_208, 3, 0.
** Name: DistCF_209   Type: Concentrated force
*Cload
DistLoadNode_209, 1, 0.
DistLoadNode_209, 2, -0.349449
DistLoadNode_209, 3, 0.
** Name: DistCF_210   Type: Concentrated force
*Cload
DistLoadNode_210, 1, 0.
DistLoadNode_210, 2, -0.352801
DistLoadNode_210, 3, 0.
** Name: DistCF_211   Type: Concentrated force
*Cload
DistLoadNode_211, 1, 0.
DistLoadNode_211, 2, -0.356169
DistLoadNode_211, 3, 0.
** Name: DistCF_212   Type: Concentrated force
*Cload
DistLoadNode_212, 1, 0.
DistLoadNode_212, 2, -0.359553
DistLoadNode_212, 3, 0.
** Name: DistCF_213   Type: Concentrated force
*Cload
DistLoadNode_213, 1, 0.
DistLoadNode_213, 2, -0.362953
DistLoadNode_213, 3, 0.
** Name: DistCF_214   Type: Concentrated force
*Cload
DistLoadNode_214, 1, 0.
DistLoadNode_214, 2, -0.366369
DistLoadNode_214, 3, 0.
** Name: DistCF_215   Type: Concentrated force
*Cload
DistLoadNode_215, 1, 0.
DistLoadNode_215, 2, -0.369801
DistLoadNode_215, 3, 0.
** Name: DistCF_216   Type: Concentrated force
*Cload
DistLoadNode_216, 1, 0.
DistLoadNode_216, 2, -0.373249
DistLoadNode_216, 3, 0.
** Name: DistCF_217   Type: Concentrated force
*Cload
DistLoadNode_217, 1, 0.
DistLoadNode_217, 2, -0.376713
DistLoadNode_217, 3, 0.
** Name: DistCF_218   Type: Concentrated force
*Cload
DistLoadNode_218, 1, 0.
DistLoadNode_218, 2, -0.380193
DistLoadNode_218, 3, 0.
** Name: DistCF_219   Type: Concentrated force
*Cload
DistLoadNode_219, 1, 0.
DistLoadNode_219, 2, -0.383689
DistLoadNode_219, 3, 0.
** Name: DistCF_220   Type: Concentrated force
*Cload
DistLoadNode_220, 1, 0.
DistLoadNode_220, 2, -0.387201
DistLoadNode_220, 3, 0.
** Name: DistCF_221   Type: Concentrated force
*Cload
DistLoadNode_221, 1, 0.
DistLoadNode_221, 2, -0.390729
DistLoadNode_221, 3, 0.
** Name: DistCF_222   Type: Concentrated force
*Cload
DistLoadNode_222, 1, 0.
DistLoadNode_222, 2, -0.394273
DistLoadNode_222, 3, 0.
** Name: DistCF_223   Type: Concentrated force
*Cload
DistLoadNode_223, 1, 0.
DistLoadNode_223, 2, -0.397833
DistLoadNode_223, 3, 0.
** Name: DistCF_224   Type: Concentrated force
*Cload
DistLoadNode_224, 1, 0.
DistLoadNode_224, 2, -0.401409
DistLoadNode_224, 3, 0.
** Name: DistCF_225   Type: Concentrated force
*Cload
DistLoadNode_225, 1, 0.
DistLoadNode_225, 2, -0.405001
DistLoadNode_225, 3, 0.
** Name: DistCF_226   Type: Concentrated force
*Cload
DistLoadNode_226, 1, 0.
DistLoadNode_226, 2, -0.408609
DistLoadNode_226, 3, 0.
** Name: DistCF_227   Type: Concentrated force
*Cload
DistLoadNode_227, 1, 0.
DistLoadNode_227, 2, -0.412233
DistLoadNode_227, 3, 0.
** Name: DistCF_228   Type: Concentrated force
*Cload
DistLoadNode_228, 1, 0.
DistLoadNode_228, 2, -0.415873
DistLoadNode_228, 3, 0.
** Name: DistCF_229   Type: Concentrated force
*Cload
DistLoadNode_229, 1, 0.
DistLoadNode_229, 2, -0.419529
DistLoadNode_229, 3, 0.
** Name: DistCF_230   Type: Concentrated force
*Cload
DistLoadNode_230, 1, 0.
DistLoadNode_230, 2, -0.423201
DistLoadNode_230, 3, 0.
** Name: DistCF_231   Type: Concentrated force
*Cload
DistLoadNode_231, 1, 0.
DistLoadNode_231, 2, -0.426889
DistLoadNode_231, 3, 0.
** Name: DistCF_232   Type: Concentrated force
*Cload
DistLoadNode_232, 1, 0.
DistLoadNode_232, 2, -0.430593
DistLoadNode_232, 3, 0.
** Name: DistCF_233   Type: Concentrated force
*Cload
DistLoadNode_233, 1, 0.
DistLoadNode_233, 2, -0.434313
DistLoadNode_233, 3, 0.
** Name: DistCF_234   Type: Concentrated force
*Cload
DistLoadNode_234, 1, 0.
DistLoadNode_234, 2, -0.438049
DistLoadNode_234, 3, 0.
** Name: DistCF_235   Type: Concentrated force
*Cload
DistLoadNode_235, 1, 0.
DistLoadNode_235, 2, -0.441801
DistLoadNode_235, 3, 0.
** Name: DistCF_236   Type: Concentrated force
*Cload
DistLoadNode_236, 1, 0.
DistLoadNode_236, 2, -0.445569
DistLoadNode_236, 3, 0.
** Name: DistCF_237   Type: Concentrated force
*Cload
DistLoadNode_237, 1, 0.
DistLoadNode_237, 2, -0.449353
DistLoadNode_237, 3, 0.
** Name: DistCF_238   Type: Concentrated force
*Cload
DistLoadNode_238, 1, 0.
DistLoadNode_238, 2, -0.453153
DistLoadNode_238, 3, 0.
** Name: DistCF_239   Type: Concentrated force
*Cload
DistLoadNode_239, 1, 0.
DistLoadNode_239, 2, -0.456969
DistLoadNode_239, 3, 0.
** Name: DistCF_240   Type: Concentrated force
*Cload
DistLoadNode_240, 1, 0.
DistLoadNode_240, 2, -0.460801
DistLoadNode_240, 3, 0.
** Name: DistCF_241   Type: Concentrated force
*Cload
DistLoadNode_241, 1, 0.
DistLoadNode_241, 2, -0.464649
DistLoadNode_241, 3, 0.
** Name: DistCF_242   Type: Concentrated force
*Cload
DistLoadNode_242, 1, 0.
DistLoadNode_242, 2, -0.468513
DistLoadNode_242, 3, 0.
** Name: DistCF_243   Type: Concentrated force
*Cload
DistLoadNode_243, 1, 0.
DistLoadNode_243, 2, -0.472393
DistLoadNode_243, 3, 0.
** Name: DistCF_244   Type: Concentrated force
*Cload
DistLoadNode_244, 1, 0.
DistLoadNode_244, 2, -0.476289
DistLoadNode_244, 3, 0.
** Name: DistCF_245   Type: Concentrated force
*Cload
DistLoadNode_245, 1, 0.
DistLoadNode_245, 2, -0.480201
DistLoadNode_245, 3, 0.
** Name: DistCF_246   Type: Concentrated force
*Cload
DistLoadNode_246, 1, 0.
DistLoadNode_246, 2, -0.484129
DistLoadNode_246, 3, 0.
** Name: DistCF_247   Type: Concentrated force
*Cload
DistLoadNode_247, 1, 0.
DistLoadNode_247, 2, -0.488073
DistLoadNode_247, 3, 0.
** Name: DistCF_248   Type: Concentrated force
*Cload
DistLoadNode_248, 1, 0.
DistLoadNode_248, 2, -0.492033
DistLoadNode_248, 3, 0.
** Name: DistCF_249   Type: Concentrated force
*Cload
DistLoadNode_249, 1, 0.
DistLoadNode_249, 2, -0.496009
DistLoadNode_249, 3, 0.
** Name: DistCF_250   Type: Concentrated force
*Cload
DistLoadNode_250, 1, 0.
DistLoadNode_250, 2, -0.500001
DistLoadNode_250, 3, 0.
** Name: DistCF_251   Type: Concentrated force
*Cload
DistLoadNode_251, 1, 0.
DistLoadNode_251, 2, -0.504009
DistLoadNode_251, 3, 0.
** Name: DistCF_252   Type: Concentrated force
*Cload
DistLoadNode_252, 1, 0.
DistLoadNode_252, 2, -0.508033
DistLoadNode_252, 3, 0.
** Name: DistCF_253   Type: Concentrated force
*Cload
DistLoadNode_253, 1, 0.
DistLoadNode_253, 2, -0.512073
DistLoadNode_253, 3, 0.
** Name: DistCF_254   Type: Concentrated force
*Cload
DistLoadNode_254, 1, 0.
DistLoadNode_254, 2, -0.516129
DistLoadNode_254, 3, 0.
** Name: DistCF_255   Type: Concentrated force
*Cload
DistLoadNode_255, 1, 0.
DistLoadNode_255, 2, -0.520201
DistLoadNode_255, 3, 0.
** Name: DistCF_256   Type: Concentrated force
*Cload
DistLoadNode_256, 1, 0.
DistLoadNode_256, 2, -0.524289
DistLoadNode_256, 3, 0.
** Name: DistCF_257   Type: Concentrated force
*Cload
DistLoadNode_257, 1, 0.
DistLoadNode_257, 2, -0.528393
DistLoadNode_257, 3, 0.
** Name: DistCF_258   Type: Concentrated force
*Cload
DistLoadNode_258, 1, 0.
DistLoadNode_258, 2, -0.532513
DistLoadNode_258, 3, 0.
** Name: DistCF_259   Type: Concentrated force
*Cload
DistLoadNode_259, 1, 0.
DistLoadNode_259, 2, -0.536649
DistLoadNode_259, 3, 0.
** Name: DistCF_260   Type: Concentrated force
*Cload
DistLoadNode_260, 1, 0.
DistLoadNode_260, 2, -0.540801
DistLoadNode_260, 3, 0.
** Name: DistCF_261   Type: Concentrated force
*Cload
DistLoadNode_261, 1, 0.
DistLoadNode_261, 2, -0.544969
DistLoadNode_261, 3, 0.
** Name: DistCF_262   Type: Concentrated force
*Cload
DistLoadNode_262, 1, 0.
DistLoadNode_262, 2, -0.549153
DistLoadNode_262, 3, 0.
** Name: DistCF_263   Type: Concentrated force
*Cload
DistLoadNode_263, 1, 0.
DistLoadNode_263, 2, -0.553353
DistLoadNode_263, 3, 0.
** Name: DistCF_264   Type: Concentrated force
*Cload
DistLoadNode_264, 1, 0.
DistLoadNode_264, 2, -0.557569
DistLoadNode_264, 3, 0.
** Name: DistCF_265   Type: Concentrated force
*Cload
DistLoadNode_265, 1, 0.
DistLoadNode_265, 2, -0.561801
DistLoadNode_265, 3, 0.
** Name: DistCF_266   Type: Concentrated force
*Cload
DistLoadNode_266, 1, 0.
DistLoadNode_266, 2, -0.566049
DistLoadNode_266, 3, 0.
** Name: DistCF_267   Type: Concentrated force
*Cload
DistLoadNode_267, 1, 0.
DistLoadNode_267, 2, -0.570313
DistLoadNode_267, 3, 0.
** Name: DistCF_268   Type: Concentrated force
*Cload
DistLoadNode_268, 1, 0.
DistLoadNode_268, 2, -0.574593
DistLoadNode_268, 3, 0.
** Name: DistCF_269   Type: Concentrated force
*Cload
DistLoadNode_269, 1, 0.
DistLoadNode_269, 2, -0.578889
DistLoadNode_269, 3, 0.
** Name: DistCF_270   Type: Concentrated force
*Cload
DistLoadNode_270, 1, 0.
DistLoadNode_270, 2, -0.583201
DistLoadNode_270, 3, 0.
** Name: DistCF_271   Type: Concentrated force
*Cload
DistLoadNode_271, 1, 0.
DistLoadNode_271, 2, -0.587529
DistLoadNode_271, 3, 0.
** Name: DistCF_272   Type: Concentrated force
*Cload
DistLoadNode_272, 1, 0.
DistLoadNode_272, 2, -0.591873
DistLoadNode_272, 3, 0.
** Name: DistCF_273   Type: Concentrated force
*Cload
DistLoadNode_273, 1, 0.
DistLoadNode_273, 2, -0.596233
DistLoadNode_273, 3, 0.
** Name: DistCF_274   Type: Concentrated force
*Cload
DistLoadNode_274, 1, 0.
DistLoadNode_274, 2, -0.600609
DistLoadNode_274, 3, 0.
** Name: DistCF_275   Type: Concentrated force
*Cload
DistLoadNode_275, 1, 0.
DistLoadNode_275, 2, -0.605001
DistLoadNode_275, 3, 0.
** Name: DistCF_276   Type: Concentrated force
*Cload
DistLoadNode_276, 1, 0.
DistLoadNode_276, 2, -0.609409
DistLoadNode_276, 3, 0.
** Name: DistCF_277   Type: Concentrated force
*Cload
DistLoadNode_277, 1, 0.
DistLoadNode_277, 2, -0.613833
DistLoadNode_277, 3, 0.
** Name: DistCF_278   Type: Concentrated force
*Cload
DistLoadNode_278, 1, 0.
DistLoadNode_278, 2, -0.618273
DistLoadNode_278, 3, 0.
** Name: DistCF_279   Type: Concentrated force
*Cload
DistLoadNode_279, 1, 0.
DistLoadNode_279, 2, -0.622729
DistLoadNode_279, 3, 0.
** Name: DistCF_280   Type: Concentrated force
*Cload
DistLoadNode_280, 1, 0.
DistLoadNode_280, 2, -0.627201
DistLoadNode_280, 3, 0.
** Name: DistCF_281   Type: Concentrated force
*Cload
DistLoadNode_281, 1, 0.
DistLoadNode_281, 2, -0.631689
DistLoadNode_281, 3, 0.
** Name: DistCF_282   Type: Concentrated force
*Cload
DistLoadNode_282, 1, 0.
DistLoadNode_282, 2, -0.636193
DistLoadNode_282, 3, 0.
** Name: DistCF_283   Type: Concentrated force
*Cload
DistLoadNode_283, 1, 0.
DistLoadNode_283, 2, -0.640713
DistLoadNode_283, 3, 0.
** Name: DistCF_284   Type: Concentrated force
*Cload
DistLoadNode_284, 1, 0.
DistLoadNode_284, 2, -0.645249
DistLoadNode_284, 3, 0.
** Name: DistCF_285   Type: Concentrated force
*Cload
DistLoadNode_285, 1, 0.
DistLoadNode_285, 2, -0.649801
DistLoadNode_285, 3, 0.
** Name: DistCF_286   Type: Concentrated force
*Cload
DistLoadNode_286, 1, 0.
DistLoadNode_286, 2, -0.654369
DistLoadNode_286, 3, 0.
** Name: DistCF_287   Type: Concentrated force
*Cload
DistLoadNode_287, 1, 0.
DistLoadNode_287, 2, -0.658953
DistLoadNode_287, 3, 0.
** Name: DistCF_288   Type: Concentrated force
*Cload
DistLoadNode_288, 1, 0.
DistLoadNode_288, 2, -0.663553
DistLoadNode_288, 3, 0.
** Name: DistCF_289   Type: Concentrated force
*Cload
DistLoadNode_289, 1, 0.
DistLoadNode_289, 2, -0.668169
DistLoadNode_289, 3, 0.
** Name: DistCF_290   Type: Concentrated force
*Cload
DistLoadNode_290, 1, 0.
DistLoadNode_290, 2, -0.672801
DistLoadNode_290, 3, 0.
** Name: DistCF_291   Type: Concentrated force
*Cload
DistLoadNode_291, 1, 0.
DistLoadNode_291, 2, -0.677449
DistLoadNode_291, 3, 0.
** Name: DistCF_292   Type: Concentrated force
*Cload
DistLoadNode_292, 1, 0.
DistLoadNode_292, 2, -0.682113
DistLoadNode_292, 3, 0.
** Name: DistCF_293   Type: Concentrated force
*Cload
DistLoadNode_293, 1, 0.
DistLoadNode_293, 2, -0.686793
DistLoadNode_293, 3, 0.
** Name: DistCF_294   Type: Concentrated force
*Cload
DistLoadNode_294, 1, 0.
DistLoadNode_294, 2, -0.691489
DistLoadNode_294, 3, 0.
** Name: DistCF_295   Type: Concentrated force
*Cload
DistLoadNode_295, 1, 0.
DistLoadNode_295, 2, -0.696201
DistLoadNode_295, 3, 0.
** Name: DistCF_296   Type: Concentrated force
*Cload
DistLoadNode_296, 1, 0.
DistLoadNode_296, 2, -0.700929
DistLoadNode_296, 3, 0.
** Name: DistCF_297   Type: Concentrated force
*Cload
DistLoadNode_297, 1, 0.
DistLoadNode_297, 2, -0.705673
DistLoadNode_297, 3, 0.
** Name: DistCF_298   Type: Concentrated force
*Cload
DistLoadNode_298, 1, 0.
DistLoadNode_298, 2, -0.710433
DistLoadNode_298, 3, 0.
** Name: DistCF_299   Type: Concentrated force
*Cload
DistLoadNode_299, 1, 0.
DistLoadNode_299, 2, -0.715209
DistLoadNode_299, 3, 0.
** Name: DistCF_300   Type: Concentrated force
*Cload
DistLoadNode_300, 1, 0.
DistLoadNode_300, 2, -0.720001
DistLoadNode_300, 3, 0.
** Name: DistCF_301   Type: Concentrated force
*Cload
DistLoadNode_301, 1, 0.
DistLoadNode_301, 2, -0.724809
DistLoadNode_301, 3, 0.
** Name: DistCF_302   Type: Concentrated force
*Cload
DistLoadNode_302, 1, 0.
DistLoadNode_302, 2, -0.729633
DistLoadNode_302, 3, 0.
** Name: DistCF_303   Type: Concentrated force
*Cload
DistLoadNode_303, 1, 0.
DistLoadNode_303, 2, -0.734473
DistLoadNode_303, 3, 0.
** Name: DistCF_304   Type: Concentrated force
*Cload
DistLoadNode_304, 1, 0.
DistLoadNode_304, 2, -0.739329
DistLoadNode_304, 3, 0.
** Name: DistCF_305   Type: Concentrated force
*Cload
DistLoadNode_305, 1, 0.
DistLoadNode_305, 2, -0.744201
DistLoadNode_305, 3, 0.
** Name: DistCF_306   Type: Concentrated force
*Cload
DistLoadNode_306, 1, 0.
DistLoadNode_306, 2, -0.749089
DistLoadNode_306, 3, 0.
** Name: DistCF_307   Type: Concentrated force
*Cload
DistLoadNode_307, 1, 0.
DistLoadNode_307, 2, -0.753993
DistLoadNode_307, 3, 0.
** Name: DistCF_308   Type: Concentrated force
*Cload
DistLoadNode_308, 1, 0.
DistLoadNode_308, 2, -0.758913
DistLoadNode_308, 3, 0.
** Name: DistCF_309   Type: Concentrated force
*Cload
DistLoadNode_309, 1, 0.
DistLoadNode_309, 2, -0.763849
DistLoadNode_309, 3, 0.
** Name: DistCF_310   Type: Concentrated force
*Cload
DistLoadNode_310, 1, 0.
DistLoadNode_310, 2, -0.768801
DistLoadNode_310, 3, 0.
** Name: DistCF_311   Type: Concentrated force
*Cload
DistLoadNode_311, 1, 0.
DistLoadNode_311, 2, -0.773769
DistLoadNode_311, 3, 0.
** Name: DistCF_312   Type: Concentrated force
*Cload
DistLoadNode_312, 1, 0.
DistLoadNode_312, 2, -0.778753
DistLoadNode_312, 3, 0.
** Name: DistCF_313   Type: Concentrated force
*Cload
DistLoadNode_313, 1, 0.
DistLoadNode_313, 2, -0.783753
DistLoadNode_313, 3, 0.
** Name: DistCF_314   Type: Concentrated force
*Cload
DistLoadNode_314, 1, 0.
DistLoadNode_314, 2, -0.788769
DistLoadNode_314, 3, 0.
** Name: DistCF_315   Type: Concentrated force
*Cload
DistLoadNode_315, 1, 0.
DistLoadNode_315, 2, -0.793801
DistLoadNode_315, 3, 0.
** Name: DistCF_316   Type: Concentrated force
*Cload
DistLoadNode_316, 1, 0.
DistLoadNode_316, 2, -0.798849
DistLoadNode_316, 3, 0.
** Name: DistCF_317   Type: Concentrated force
*Cload
DistLoadNode_317, 1, 0.
DistLoadNode_317, 2, -0.803913
DistLoadNode_317, 3, 0.
** Name: DistCF_318   Type: Concentrated force
*Cload
DistLoadNode_318, 1, 0.
DistLoadNode_318, 2, -0.808993
DistLoadNode_318, 3, 0.
** Name: DistCF_319   Type: Concentrated force
*Cload
DistLoadNode_319, 1, 0.
DistLoadNode_319, 2, -0.814089
DistLoadNode_319, 3, 0.
** Name: DistCF_320   Type: Concentrated force
*Cload
DistLoadNode_320, 1, 0.
DistLoadNode_320, 2, -0.819201
DistLoadNode_320, 3, 0.
** Name: DistCF_321   Type: Concentrated force
*Cload
DistLoadNode_321, 1, 0.
DistLoadNode_321, 2, -0.824329
DistLoadNode_321, 3, 0.
** Name: DistCF_322   Type: Concentrated force
*Cload
DistLoadNode_322, 1, 0.
DistLoadNode_322, 2, -0.829473
DistLoadNode_322, 3, 0.
** Name: DistCF_323   Type: Concentrated force
*Cload
DistLoadNode_323, 1, 0.
DistLoadNode_323, 2, -0.834633
DistLoadNode_323, 3, 0.
** Name: DistCF_324   Type: Concentrated force
*Cload
DistLoadNode_324, 1, 0.
DistLoadNode_324, 2, -0.839809
DistLoadNode_324, 3, 0.
** Name: DistCF_325   Type: Concentrated force
*Cload
DistLoadNode_325, 1, 0.
DistLoadNode_325, 2, -0.845001
DistLoadNode_325, 3, 0.
** Name: DistCF_326   Type: Concentrated force
*Cload
DistLoadNode_326, 1, 0.
DistLoadNode_326, 2, -0.850209
DistLoadNode_326, 3, 0.
** Name: DistCF_327   Type: Concentrated force
*Cload
DistLoadNode_327, 1, 0.
DistLoadNode_327, 2, -0.855433
DistLoadNode_327, 3, 0.
** Name: DistCF_328   Type: Concentrated force
*Cload
DistLoadNode_328, 1, 0.
DistLoadNode_328, 2, -0.860673
DistLoadNode_328, 3, 0.
** Name: DistCF_329   Type: Concentrated force
*Cload
DistLoadNode_329, 1, 0.
DistLoadNode_329, 2, -0.865929
DistLoadNode_329, 3, 0.
** Name: DistCF_330   Type: Concentrated force
*Cload
DistLoadNode_330, 1, 0.
DistLoadNode_330, 2, -0.871201
DistLoadNode_330, 3, 0.
** Name: DistCF_331   Type: Concentrated force
*Cload
DistLoadNode_331, 1, 0.
DistLoadNode_331, 2, -0.876489
DistLoadNode_331, 3, 0.
** Name: DistCF_332   Type: Concentrated force
*Cload
DistLoadNode_332, 1, 0.
DistLoadNode_332, 2, -0.881793
DistLoadNode_332, 3, 0.
** Name: DistCF_333   Type: Concentrated force
*Cload
DistLoadNode_333, 1, 0.
DistLoadNode_333, 2, -0.887113
DistLoadNode_333, 3, 0.
** Name: DistCF_334   Type: Concentrated force
*Cload
DistLoadNode_334, 1, 0.
DistLoadNode_334, 2, -0.892449
DistLoadNode_334, 3, 0.
** Name: DistCF_335   Type: Concentrated force
*Cload
DistLoadNode_335, 1, 0.
DistLoadNode_335, 2, -0.897801
DistLoadNode_335, 3, 0.
** Name: DistCF_336   Type: Concentrated force
*Cload
DistLoadNode_336, 1, 0.
DistLoadNode_336, 2, -0.903169
DistLoadNode_336, 3, 0.
** Name: DistCF_337   Type: Concentrated force
*Cload
DistLoadNode_337, 1, 0.
DistLoadNode_337, 2, -0.908553
DistLoadNode_337, 3, 0.
** Name: DistCF_338   Type: Concentrated force
*Cload
DistLoadNode_338, 1, 0.
DistLoadNode_338, 2, -0.913953
DistLoadNode_338, 3, 0.
** Name: DistCF_339   Type: Concentrated force
*Cload
DistLoadNode_339, 1, 0.
DistLoadNode_339, 2, -0.919369
DistLoadNode_339, 3, 0.
** Name: DistCF_340   Type: Concentrated force
*Cload
DistLoadNode_340, 1, 0.
DistLoadNode_340, 2, -0.924801
DistLoadNode_340, 3, 0.
** Name: DistCF_341   Type: Concentrated force
*Cload
DistLoadNode_341, 1, 0.
DistLoadNode_341, 2, -0.930249
DistLoadNode_341, 3, 0.
** Name: DistCF_342   Type: Concentrated force
*Cload
DistLoadNode_342, 1, 0.
DistLoadNode_342, 2, -0.935713
DistLoadNode_342, 3, 0.
** Name: DistCF_343   Type: Concentrated force
*Cload
DistLoadNode_343, 1, 0.
DistLoadNode_343, 2, -0.941193
DistLoadNode_343, 3, 0.
** Name: DistCF_344   Type: Concentrated force
*Cload
DistLoadNode_344, 1, 0.
DistLoadNode_344, 2, -0.946689
DistLoadNode_344, 3, 0.
** Name: DistCF_345   Type: Concentrated force
*Cload
DistLoadNode_345, 1, 0.
DistLoadNode_345, 2, -0.952201
DistLoadNode_345, 3, 0.
** Name: DistCF_346   Type: Concentrated force
*Cload
DistLoadNode_346, 1, 0.
DistLoadNode_346, 2, -0.957729
DistLoadNode_346, 3, 0.
** Name: DistCF_347   Type: Concentrated force
*Cload
DistLoadNode_347, 1, 0.
DistLoadNode_347, 2, -0.963273
DistLoadNode_347, 3, 0.
** Name: DistCF_348   Type: Concentrated force
*Cload
DistLoadNode_348, 1, 0.
DistLoadNode_348, 2, -0.968833
DistLoadNode_348, 3, 0.
** Name: DistCF_349   Type: Concentrated force
*Cload
DistLoadNode_349, 1, 0.
DistLoadNode_349, 2, -0.974409
DistLoadNode_349, 3, 0.
** Name: DistCF_350   Type: Concentrated force
*Cload
DistLoadNode_350, 1, 0.
DistLoadNode_350, 2, -0.980001
DistLoadNode_350, 3, 0.
** Name: DistCF_351   Type: Concentrated force
*Cload
DistLoadNode_351, 1, 0.
DistLoadNode_351, 2, -0.985609
DistLoadNode_351, 3, 0.
** Name: DistCF_352   Type: Concentrated force
*Cload
DistLoadNode_352, 1, 0.
DistLoadNode_352, 2, -0.991233
DistLoadNode_352, 3, 0.
** Name: DistCF_353   Type: Concentrated force
*Cload
DistLoadNode_353, 1, 0.
DistLoadNode_353, 2, -0.996873
DistLoadNode_353, 3, 0.
** Name: DistCF_354   Type: Concentrated force
*Cload
DistLoadNode_354, 1, 0.
DistLoadNode_354, 2, -1.00253
DistLoadNode_354, 3, 0.
** Name: DistCF_355   Type: Concentrated force
*Cload
DistLoadNode_355, 1, 0.
DistLoadNode_355, 2, -1.0082
DistLoadNode_355, 3, 0.
** Name: DistCF_356   Type: Concentrated force
*Cload
DistLoadNode_356, 1, 0.
DistLoadNode_356, 2, -1.01389
DistLoadNode_356, 3, 0.
** Name: DistCF_357   Type: Concentrated force
*Cload
DistLoadNode_357, 1, 0.
DistLoadNode_357, 2, -1.01959
DistLoadNode_357, 3, 0.
** Name: DistCF_358   Type: Concentrated force
*Cload
DistLoadNode_358, 1, 0.
DistLoadNode_358, 2, -1.02531
DistLoadNode_358, 3, 0.
** Name: DistCF_359   Type: Concentrated force
*Cload
DistLoadNode_359, 1, 0.
DistLoadNode_359, 2, -1.03105
DistLoadNode_359, 3, 0.
** Name: DistCF_360   Type: Concentrated force
*Cload
DistLoadNode_360, 1, 0.
DistLoadNode_360, 2, -1.0368
DistLoadNode_360, 3, 0.
** Name: DistCF_361   Type: Concentrated force
*Cload
DistLoadNode_361, 1, 0.
DistLoadNode_361, 2, -1.04257
DistLoadNode_361, 3, 0.
** Name: DistCF_362   Type: Concentrated force
*Cload
DistLoadNode_362, 1, 0.
DistLoadNode_362, 2, -1.04835
DistLoadNode_362, 3, 0.
** Name: DistCF_363   Type: Concentrated force
*Cload
DistLoadNode_363, 1, 0.
DistLoadNode_363, 2, -1.05415
DistLoadNode_363, 3, 0.
** Name: DistCF_364   Type: Concentrated force
*Cload
DistLoadNode_364, 1, 0.
DistLoadNode_364, 2, -1.05997
DistLoadNode_364, 3, 0.
** Name: DistCF_365   Type: Concentrated force
*Cload
DistLoadNode_365, 1, 0.
DistLoadNode_365, 2, -1.0658
DistLoadNode_365, 3, 0.
** Name: DistCF_366   Type: Concentrated force
*Cload
DistLoadNode_366, 1, 0.
DistLoadNode_366, 2, -1.07165
DistLoadNode_366, 3, 0.
** Name: DistCF_367   Type: Concentrated force
*Cload
DistLoadNode_367, 1, 0.
DistLoadNode_367, 2, -1.07751
DistLoadNode_367, 3, 0.
** Name: DistCF_368   Type: Concentrated force
*Cload
DistLoadNode_368, 1, 0.
DistLoadNode_368, 2, -1.08339
DistLoadNode_368, 3, 0.
** Name: DistCF_369   Type: Concentrated force
*Cload
DistLoadNode_369, 1, 0.
DistLoadNode_369, 2, -1.08929
DistLoadNode_369, 3, 0.
** Name: DistCF_370   Type: Concentrated force
*Cload
DistLoadNode_370, 1, 0.
DistLoadNode_370, 2, -1.0952
DistLoadNode_370, 3, 0.
** Name: DistCF_371   Type: Concentrated force
*Cload
DistLoadNode_371, 1, 0.
DistLoadNode_371, 2, -1.10113
DistLoadNode_371, 3, 0.
** Name: DistCF_372   Type: Concentrated force
*Cload
DistLoadNode_372, 1, 0.
DistLoadNode_372, 2, -1.10707
DistLoadNode_372, 3, 0.
** Name: DistCF_373   Type: Concentrated force
*Cload
DistLoadNode_373, 1, 0.
DistLoadNode_373, 2, -1.11303
DistLoadNode_373, 3, 0.
** Name: DistCF_374   Type: Concentrated force
*Cload
DistLoadNode_374, 1, 0.
DistLoadNode_374, 2, -1.11901
DistLoadNode_374, 3, 0.
** Name: DistCF_375   Type: Concentrated force
*Cload
DistLoadNode_375, 1, 0.
DistLoadNode_375, 2, -1.125
DistLoadNode_375, 3, 0.
** Name: DistCF_376   Type: Concentrated force
*Cload
DistLoadNode_376, 1, 0.
DistLoadNode_376, 2, -1.13101
DistLoadNode_376, 3, 0.
** Name: DistCF_377   Type: Concentrated force
*Cload
DistLoadNode_377, 1, 0.
DistLoadNode_377, 2, -1.13703
DistLoadNode_377, 3, 0.
** Name: DistCF_378   Type: Concentrated force
*Cload
DistLoadNode_378, 1, 0.
DistLoadNode_378, 2, -1.14307
DistLoadNode_378, 3, 0.
** Name: DistCF_379   Type: Concentrated force
*Cload
DistLoadNode_379, 1, 0.
DistLoadNode_379, 2, -1.14913
DistLoadNode_379, 3, 0.
** Name: DistCF_380   Type: Concentrated force
*Cload
DistLoadNode_380, 1, 0.
DistLoadNode_380, 2, -1.1552
DistLoadNode_380, 3, 0.
** Name: DistCF_381   Type: Concentrated force
*Cload
DistLoadNode_381, 1, 0.
DistLoadNode_381, 2, -1.16129
DistLoadNode_381, 3, 0.
** Name: DistCF_382   Type: Concentrated force
*Cload
DistLoadNode_382, 1, 0.
DistLoadNode_382, 2, -1.16739
DistLoadNode_382, 3, 0.
** Name: DistCF_383   Type: Concentrated force
*Cload
DistLoadNode_383, 1, 0.
DistLoadNode_383, 2, -1.17351
DistLoadNode_383, 3, 0.
** Name: DistCF_384   Type: Concentrated force
*Cload
DistLoadNode_384, 1, 0.
DistLoadNode_384, 2, -1.17965
DistLoadNode_384, 3, 0.
** Name: DistCF_385   Type: Concentrated force
*Cload
DistLoadNode_385, 1, 0.
DistLoadNode_385, 2, -1.1858
DistLoadNode_385, 3, 0.
** Name: DistCF_386   Type: Concentrated force
*Cload
DistLoadNode_386, 1, 0.
DistLoadNode_386, 2, -1.19197
DistLoadNode_386, 3, 0.
** Name: DistCF_387   Type: Concentrated force
*Cload
DistLoadNode_387, 1, 0.
DistLoadNode_387, 2, -1.19815
DistLoadNode_387, 3, 0.
** Name: DistCF_388   Type: Concentrated force
*Cload
DistLoadNode_388, 1, 0.
DistLoadNode_388, 2, -1.20435
DistLoadNode_388, 3, 0.
** Name: DistCF_389   Type: Concentrated force
*Cload
DistLoadNode_389, 1, 0.
DistLoadNode_389, 2, -1.21057
DistLoadNode_389, 3, 0.
** Name: DistCF_390   Type: Concentrated force
*Cload
DistLoadNode_390, 1, 0.
DistLoadNode_390, 2, -1.2168
DistLoadNode_390, 3, 0.
** Name: DistCF_391   Type: Concentrated force
*Cload
DistLoadNode_391, 1, 0.
DistLoadNode_391, 2, -1.22305
DistLoadNode_391, 3, 0.
** Name: DistCF_392   Type: Concentrated force
*Cload
DistLoadNode_392, 1, 0.
DistLoadNode_392, 2, -1.22931
DistLoadNode_392, 3, 0.
** Name: DistCF_393   Type: Concentrated force
*Cload
DistLoadNode_393, 1, 0.
DistLoadNode_393, 2, -1.23559
DistLoadNode_393, 3, 0.
** Name: DistCF_394   Type: Concentrated force
*Cload
DistLoadNode_394, 1, 0.
DistLoadNode_394, 2, -1.24189
DistLoadNode_394, 3, 0.
** Name: DistCF_395   Type: Concentrated force
*Cload
DistLoadNode_395, 1, 0.
DistLoadNode_395, 2, -1.2482
DistLoadNode_395, 3, 0.
** Name: DistCF_396   Type: Concentrated force
*Cload
DistLoadNode_396, 1, 0.
DistLoadNode_396, 2, -1.25453
DistLoadNode_396, 3, 0.
** Name: DistCF_397   Type: Concentrated force
*Cload
DistLoadNode_397, 1, 0.
DistLoadNode_397, 2, -1.26087
DistLoadNode_397, 3, 0.
** Name: DistCF_398   Type: Concentrated force
*Cload
DistLoadNode_398, 1, 0.
DistLoadNode_398, 2, -1.26723
DistLoadNode_398, 3, 0.
** Name: DistCF_399   Type: Concentrated force
*Cload
DistLoadNode_399, 1, 0.
DistLoadNode_399, 2, -1.27361
DistLoadNode_399, 3, 0.
** Name: DistCF_400   Type: Concentrated force
*Cload
DistLoadNode_400, 1, 0.
DistLoadNode_400, 2, -1.28
DistLoadNode_400, 3, 0.
** Name: DistCF_401   Type: Concentrated force
*Cload
DistLoadNode_401, 1, 0.
DistLoadNode_401, 2, -1.28641
DistLoadNode_401, 3, 0.
** Name: DistCF_402   Type: Concentrated force
*Cload
DistLoadNode_402, 1, 0.
DistLoadNode_402, 2, -1.29283
DistLoadNode_402, 3, 0.
** Name: DistCF_403   Type: Concentrated force
*Cload
DistLoadNode_403, 1, 0.
DistLoadNode_403, 2, -1.29927
DistLoadNode_403, 3, 0.
** Name: DistCF_404   Type: Concentrated force
*Cload
DistLoadNode_404, 1, 0.
DistLoadNode_404, 2, -1.30573
DistLoadNode_404, 3, 0.
** Name: DistCF_405   Type: Concentrated force
*Cload
DistLoadNode_405, 1, 0.
DistLoadNode_405, 2, -1.3122
DistLoadNode_405, 3, 0.
** Name: DistCF_406   Type: Concentrated force
*Cload
DistLoadNode_406, 1, 0.
DistLoadNode_406, 2, -1.31869
DistLoadNode_406, 3, 0.
** Name: DistCF_407   Type: Concentrated force
*Cload
DistLoadNode_407, 1, 0.
DistLoadNode_407, 2, -1.32519
DistLoadNode_407, 3, 0.
** Name: DistCF_408   Type: Concentrated force
*Cload
DistLoadNode_408, 1, 0.
DistLoadNode_408, 2, -1.33171
DistLoadNode_408, 3, 0.
** Name: DistCF_409   Type: Concentrated force
*Cload
DistLoadNode_409, 1, 0.
DistLoadNode_409, 2, -1.33825
DistLoadNode_409, 3, 0.
** Name: DistCF_410   Type: Concentrated force
*Cload
DistLoadNode_410, 1, 0.
DistLoadNode_410, 2, -1.3448
DistLoadNode_410, 3, 0.
** Name: DistCF_411   Type: Concentrated force
*Cload
DistLoadNode_411, 1, 0.
DistLoadNode_411, 2, -1.35137
DistLoadNode_411, 3, 0.
** Name: DistCF_412   Type: Concentrated force
*Cload
DistLoadNode_412, 1, 0.
DistLoadNode_412, 2, -1.35795
DistLoadNode_412, 3, 0.
** Name: DistCF_413   Type: Concentrated force
*Cload
DistLoadNode_413, 1, 0.
DistLoadNode_413, 2, -1.36455
DistLoadNode_413, 3, 0.
** Name: DistCF_414   Type: Concentrated force
*Cload
DistLoadNode_414, 1, 0.
DistLoadNode_414, 2, -1.37117
DistLoadNode_414, 3, 0.
** Name: DistCF_415   Type: Concentrated force
*Cload
DistLoadNode_415, 1, 0.
DistLoadNode_415, 2, -1.3778
DistLoadNode_415, 3, 0.
** Name: DistCF_416   Type: Concentrated force
*Cload
DistLoadNode_416, 1, 0.
DistLoadNode_416, 2, -1.38445
DistLoadNode_416, 3, 0.
** Name: DistCF_417   Type: Concentrated force
*Cload
DistLoadNode_417, 1, 0.
DistLoadNode_417, 2, -1.39111
DistLoadNode_417, 3, 0.
** Name: DistCF_418   Type: Concentrated force
*Cload
DistLoadNode_418, 1, 0.
DistLoadNode_418, 2, -1.39779
DistLoadNode_418, 3, 0.
** Name: DistCF_419   Type: Concentrated force
*Cload
DistLoadNode_419, 1, 0.
DistLoadNode_419, 2, -1.40449
DistLoadNode_419, 3, 0.
** Name: DistCF_420   Type: Concentrated force
*Cload
DistLoadNode_420, 1, 0.
DistLoadNode_420, 2, -1.4112
DistLoadNode_420, 3, 0.
** Name: DistCF_421   Type: Concentrated force
*Cload
DistLoadNode_421, 1, 0.
DistLoadNode_421, 2, -1.41793
DistLoadNode_421, 3, 0.
** Name: DistCF_422   Type: Concentrated force
*Cload
DistLoadNode_422, 1, 0.
DistLoadNode_422, 2, -1.42467
DistLoadNode_422, 3, 0.
** Name: DistCF_423   Type: Concentrated force
*Cload
DistLoadNode_423, 1, 0.
DistLoadNode_423, 2, -1.43143
DistLoadNode_423, 3, 0.
** Name: DistCF_424   Type: Concentrated force
*Cload
DistLoadNode_424, 1, 0.
DistLoadNode_424, 2, -1.43821
DistLoadNode_424, 3, 0.
** Name: DistCF_425   Type: Concentrated force
*Cload
DistLoadNode_425, 1, 0.
DistLoadNode_425, 2, -1.445
DistLoadNode_425, 3, 0.
** Name: DistCF_426   Type: Concentrated force
*Cload
DistLoadNode_426, 1, 0.
DistLoadNode_426, 2, -1.45181
DistLoadNode_426, 3, 0.
** Name: DistCF_427   Type: Concentrated force
*Cload
DistLoadNode_427, 1, 0.
DistLoadNode_427, 2, -1.45863
DistLoadNode_427, 3, 0.
** Name: DistCF_428   Type: Concentrated force
*Cload
DistLoadNode_428, 1, 0.
DistLoadNode_428, 2, -1.46547
DistLoadNode_428, 3, 0.
** Name: DistCF_429   Type: Concentrated force
*Cload
DistLoadNode_429, 1, 0.
DistLoadNode_429, 2, -1.47233
DistLoadNode_429, 3, 0.
** Name: DistCF_430   Type: Concentrated force
*Cload
DistLoadNode_430, 1, 0.
DistLoadNode_430, 2, -1.4792
DistLoadNode_430, 3, 0.
** Name: DistCF_431   Type: Concentrated force
*Cload
DistLoadNode_431, 1, 0.
DistLoadNode_431, 2, -1.48609
DistLoadNode_431, 3, 0.
** Name: DistCF_432   Type: Concentrated force
*Cload
DistLoadNode_432, 1, 0.
DistLoadNode_432, 2, -1.49299
DistLoadNode_432, 3, 0.
** Name: DistCF_433   Type: Concentrated force
*Cload
DistLoadNode_433, 1, 0.
DistLoadNode_433, 2, -1.49991
DistLoadNode_433, 3, 0.
** Name: DistCF_434   Type: Concentrated force
*Cload
DistLoadNode_434, 1, 0.
DistLoadNode_434, 2, -1.50685
DistLoadNode_434, 3, 0.
** Name: DistCF_435   Type: Concentrated force
*Cload
DistLoadNode_435, 1, 0.
DistLoadNode_435, 2, -1.5138
DistLoadNode_435, 3, 0.
** Name: DistCF_436   Type: Concentrated force
*Cload
DistLoadNode_436, 1, 0.
DistLoadNode_436, 2, -1.52077
DistLoadNode_436, 3, 0.
** Name: DistCF_437   Type: Concentrated force
*Cload
DistLoadNode_437, 1, 0.
DistLoadNode_437, 2, -1.52775
DistLoadNode_437, 3, 0.
** Name: DistCF_438   Type: Concentrated force
*Cload
DistLoadNode_438, 1, 0.
DistLoadNode_438, 2, -1.53475
DistLoadNode_438, 3, 0.
** Name: DistCF_439   Type: Concentrated force
*Cload
DistLoadNode_439, 1, 0.
DistLoadNode_439, 2, -1.54177
DistLoadNode_439, 3, 0.
** Name: DistCF_440   Type: Concentrated force
*Cload
DistLoadNode_440, 1, 0.
DistLoadNode_440, 2, -1.5488
DistLoadNode_440, 3, 0.
** Name: DistCF_441   Type: Concentrated force
*Cload
DistLoadNode_441, 1, 0.
DistLoadNode_441, 2, -1.55585
DistLoadNode_441, 3, 0.
** Name: DistCF_442   Type: Concentrated force
*Cload
DistLoadNode_442, 1, 0.
DistLoadNode_442, 2, -1.56291
DistLoadNode_442, 3, 0.
** Name: DistCF_443   Type: Concentrated force
*Cload
DistLoadNode_443, 1, 0.
DistLoadNode_443, 2, -1.56999
DistLoadNode_443, 3, 0.
** Name: DistCF_444   Type: Concentrated force
*Cload
DistLoadNode_444, 1, 0.
DistLoadNode_444, 2, -1.57709
DistLoadNode_444, 3, 0.
** Name: DistCF_445   Type: Concentrated force
*Cload
DistLoadNode_445, 1, 0.
DistLoadNode_445, 2, -1.5842
DistLoadNode_445, 3, 0.
** Name: DistCF_446   Type: Concentrated force
*Cload
DistLoadNode_446, 1, 0.
DistLoadNode_446, 2, -1.59133
DistLoadNode_446, 3, 0.
** Name: DistCF_447   Type: Concentrated force
*Cload
DistLoadNode_447, 1, 0.
DistLoadNode_447, 2, -1.59847
DistLoadNode_447, 3, 0.
** Name: DistCF_448   Type: Concentrated force
*Cload
DistLoadNode_448, 1, 0.
DistLoadNode_448, 2, -1.60563
DistLoadNode_448, 3, 0.
** Name: DistCF_449   Type: Concentrated force
*Cload
DistLoadNode_449, 1, 0.
DistLoadNode_449, 2, -1.61281
DistLoadNode_449, 3, 0.
** Name: DistCF_450   Type: Concentrated force
*Cload
DistLoadNode_450, 1, 0.
DistLoadNode_450, 2, -1.62
DistLoadNode_450, 3, 0.
** Name: DistCF_451   Type: Concentrated force
*Cload
DistLoadNode_451, 1, 0.
DistLoadNode_451, 2, -1.62721
DistLoadNode_451, 3, 0.
** Name: DistCF_452   Type: Concentrated force
*Cload
DistLoadNode_452, 1, 0.
DistLoadNode_452, 2, -1.63443
DistLoadNode_452, 3, 0.
** Name: DistCF_453   Type: Concentrated force
*Cload
DistLoadNode_453, 1, 0.
DistLoadNode_453, 2, -1.64167
DistLoadNode_453, 3, 0.
** Name: DistCF_454   Type: Concentrated force
*Cload
DistLoadNode_454, 1, 0.
DistLoadNode_454, 2, -1.64893
DistLoadNode_454, 3, 0.
** Name: DistCF_455   Type: Concentrated force
*Cload
DistLoadNode_455, 1, 0.
DistLoadNode_455, 2, -1.6562
DistLoadNode_455, 3, 0.
** Name: DistCF_456   Type: Concentrated force
*Cload
DistLoadNode_456, 1, 0.
DistLoadNode_456, 2, -1.66349
DistLoadNode_456, 3, 0.
** Name: DistCF_457   Type: Concentrated force
*Cload
DistLoadNode_457, 1, 0.
DistLoadNode_457, 2, -1.67079
DistLoadNode_457, 3, 0.
** Name: DistCF_458   Type: Concentrated force
*Cload
DistLoadNode_458, 1, 0.
DistLoadNode_458, 2, -1.67811
DistLoadNode_458, 3, 0.
** Name: DistCF_459   Type: Concentrated force
*Cload
DistLoadNode_459, 1, 0.
DistLoadNode_459, 2, -1.68545
DistLoadNode_459, 3, 0.
** Name: DistCF_460   Type: Concentrated force
*Cload
DistLoadNode_460, 1, 0.
DistLoadNode_460, 2, -1.6928
DistLoadNode_460, 3, 0.
** Name: DistCF_461   Type: Concentrated force
*Cload
DistLoadNode_461, 1, 0.
DistLoadNode_461, 2, -1.70017
DistLoadNode_461, 3, 0.
** Name: DistCF_462   Type: Concentrated force
*Cload
DistLoadNode_462, 1, 0.
DistLoadNode_462, 2, -1.70755
DistLoadNode_462, 3, 0.
** Name: DistCF_463   Type: Concentrated force
*Cload
DistLoadNode_463, 1, 0.
DistLoadNode_463, 2, -1.71495
DistLoadNode_463, 3, 0.
** Name: DistCF_464   Type: Concentrated force
*Cload
DistLoadNode_464, 1, 0.
DistLoadNode_464, 2, -1.72237
DistLoadNode_464, 3, 0.
** Name: DistCF_465   Type: Concentrated force
*Cload
DistLoadNode_465, 1, 0.
DistLoadNode_465, 2, -1.7298
DistLoadNode_465, 3, 0.
** Name: DistCF_466   Type: Concentrated force
*Cload
DistLoadNode_466, 1, 0.
DistLoadNode_466, 2, -1.73725
DistLoadNode_466, 3, 0.
** Name: DistCF_467   Type: Concentrated force
*Cload
DistLoadNode_467, 1, 0.
DistLoadNode_467, 2, -1.74471
DistLoadNode_467, 3, 0.
** Name: DistCF_468   Type: Concentrated force
*Cload
DistLoadNode_468, 1, 0.
DistLoadNode_468, 2, -1.75219
DistLoadNode_468, 3, 0.
** Name: DistCF_469   Type: Concentrated force
*Cload
DistLoadNode_469, 1, 0.
DistLoadNode_469, 2, -1.75969
DistLoadNode_469, 3, 0.
** Name: DistCF_470   Type: Concentrated force
*Cload
DistLoadNode_470, 1, 0.
DistLoadNode_470, 2, -1.7672
DistLoadNode_470, 3, 0.
** Name: DistCF_471   Type: Concentrated force
*Cload
DistLoadNode_471, 1, 0.
DistLoadNode_471, 2, -1.77473
DistLoadNode_471, 3, 0.
** Name: DistCF_472   Type: Concentrated force
*Cload
DistLoadNode_472, 1, 0.
DistLoadNode_472, 2, -1.78227
DistLoadNode_472, 3, 0.
** Name: DistCF_473   Type: Concentrated force
*Cload
DistLoadNode_473, 1, 0.
DistLoadNode_473, 2, -1.78983
DistLoadNode_473, 3, 0.
** Name: DistCF_474   Type: Concentrated force
*Cload
DistLoadNode_474, 1, 0.
DistLoadNode_474, 2, -1.79741
DistLoadNode_474, 3, 0.
** Name: DistCF_475   Type: Concentrated force
*Cload
DistLoadNode_475, 1, 0.
DistLoadNode_475, 2, -1.805
DistLoadNode_475, 3, 0.
** Name: DistCF_476   Type: Concentrated force
*Cload
DistLoadNode_476, 1, 0.
DistLoadNode_476, 2, -1.81261
DistLoadNode_476, 3, 0.
** Name: DistCF_477   Type: Concentrated force
*Cload
DistLoadNode_477, 1, 0.
DistLoadNode_477, 2, -1.82023
DistLoadNode_477, 3, 0.
** Name: DistCF_478   Type: Concentrated force
*Cload
DistLoadNode_478, 1, 0.
DistLoadNode_478, 2, -1.82787
DistLoadNode_478, 3, 0.
** Name: DistCF_479   Type: Concentrated force
*Cload
DistLoadNode_479, 1, 0.
DistLoadNode_479, 2, -1.83553
DistLoadNode_479, 3, 0.
** Name: DistCF_480   Type: Concentrated force
*Cload
DistLoadNode_480, 1, 0.
DistLoadNode_480, 2, -1.8432
DistLoadNode_480, 3, 0.
** Name: DistCF_481   Type: Concentrated force
*Cload
DistLoadNode_481, 1, 0.
DistLoadNode_481, 2, -1.85089
DistLoadNode_481, 3, 0.
** Name: DistCF_482   Type: Concentrated force
*Cload
DistLoadNode_482, 1, 0.
DistLoadNode_482, 2, -1.85859
DistLoadNode_482, 3, 0.
** Name: DistCF_483   Type: Concentrated force
*Cload
DistLoadNode_483, 1, 0.
DistLoadNode_483, 2, -1.86631
DistLoadNode_483, 3, 0.
** Name: DistCF_484   Type: Concentrated force
*Cload
DistLoadNode_484, 1, 0.
DistLoadNode_484, 2, -1.87405
DistLoadNode_484, 3, 0.
** Name: DistCF_485   Type: Concentrated force
*Cload
DistLoadNode_485, 1, 0.
DistLoadNode_485, 2, -1.8818
DistLoadNode_485, 3, 0.
** Name: DistCF_486   Type: Concentrated force
*Cload
DistLoadNode_486, 1, 0.
DistLoadNode_486, 2, -1.88957
DistLoadNode_486, 3, 0.
** Name: DistCF_487   Type: Concentrated force
*Cload
DistLoadNode_487, 1, 0.
DistLoadNode_487, 2, -1.89735
DistLoadNode_487, 3, 0.
** Name: DistCF_488   Type: Concentrated force
*Cload
DistLoadNode_488, 1, 0.
DistLoadNode_488, 2, -1.90515
DistLoadNode_488, 3, 0.
** Name: DistCF_489   Type: Concentrated force
*Cload
DistLoadNode_489, 1, 0.
DistLoadNode_489, 2, -1.91297
DistLoadNode_489, 3, 0.
** Name: DistCF_490   Type: Concentrated force
*Cload
DistLoadNode_490, 1, 0.
DistLoadNode_490, 2, -1.9208
DistLoadNode_490, 3, 0.
** Name: DistCF_491   Type: Concentrated force
*Cload
DistLoadNode_491, 1, 0.
DistLoadNode_491, 2, -1.92865
DistLoadNode_491, 3, 0.
** Name: DistCF_492   Type: Concentrated force
*Cload
DistLoadNode_492, 1, 0.
DistLoadNode_492, 2, -1.93651
DistLoadNode_492, 3, 0.
** Name: DistCF_493   Type: Concentrated force
*Cload
DistLoadNode_493, 1, 0.
DistLoadNode_493, 2, -1.94439
DistLoadNode_493, 3, 0.
** Name: DistCF_494   Type: Concentrated force
*Cload
DistLoadNode_494, 1, 0.
DistLoadNode_494, 2, -1.95229
DistLoadNode_494, 3, 0.
** Name: DistCF_495   Type: Concentrated force
*Cload
DistLoadNode_495, 1, 0.
DistLoadNode_495, 2, -1.9602
DistLoadNode_495, 3, 0.
** Name: DistCF_496   Type: Concentrated force
*Cload
DistLoadNode_496, 1, 0.
DistLoadNode_496, 2, -1.96813
DistLoadNode_496, 3, 0.
** Name: DistCF_497   Type: Concentrated force
*Cload
DistLoadNode_497, 1, 0.
DistLoadNode_497, 2, -1.97607
DistLoadNode_497, 3, 0.
** Name: DistCF_498   Type: Concentrated force
*Cload
DistLoadNode_498, 1, 0.
DistLoadNode_498, 2, -1.98403
DistLoadNode_498, 3, 0.
** Name: DistCF_499   Type: Concentrated force
*Cload
DistLoadNode_499, 1, 0.
DistLoadNode_499, 2, -1.99201
DistLoadNode_499, 3, 0.
** Name: DistCF_500   Type: Concentrated force
*Cload
DistLoadNode_500, 1, 0.
DistLoadNode_500, 2, -0.998801
DistLoadNode_500, 3, 0.
** 
** OUTPUT REQUESTS
** 
*Restart, write, frequency=0
** 
** FIELD OUTPUT: F-Output-1
** 
*Output, field, variable=PRESELECT
** 
** HISTORY OUTPUT: H-Output-1
** 
*Output, history, variable=PRESELECT
*End Step
