*Heading
** Job name: job_0004_n64_abaqus Model name: Model-1
** Generated by: Abaqus/CAE 2021
*Preprint, echo=NO, model=NO, history=NO, contact=NO
**
** PARTS
**
*Part, name=Beam
*Node
      1,      1.96875,           0.,           0.
      2,           2.,           0.,           0.
      3,       1.9375,           0.,           0.
      4,      1.90625,           0.,           0.
      5,        1.875,           0.,           0.
      6,      1.84375,           0.,           0.
      7,       1.8125,           0.,           0.
      8,      1.78125,           0.,           0.
      9,         1.75,           0.,           0.
     10,      1.71875,           0.,           0.
     11,       1.6875,           0.,           0.
     12,      1.65625,           0.,           0.
     13,        1.625,           0.,           0.
     14,      1.59375,           0.,           0.
     15,       1.5625,           0.,           0.
     16,      1.53125,           0.,           0.
     17,          1.5,           0.,           0.
     18,      1.46875,           0.,           0.
     19,       1.4375,           0.,           0.
     20,      1.40625,           0.,           0.
** ... 45 like lines cut
*Element, type=B31
1, 1, 2
2, 3, 1
3, 4, 3
4, 5, 4
5, 6, 5
6, 7, 6
7, 8, 7
8, 9, 8
 9, 10,  9
10, 11, 10
11, 12, 11
12, 13, 12
13, 14, 13
14, 15, 14
15, 16, 15
16, 17, 16
17, 18, 17
18, 19, 18
19, 20, 19
20, 21, 20
** ... 44 like lines cut
*Nset, nset=BeamSet, generate
  1,  65,   1
*Elset, elset=BeamSet, generate
  1,  64,   1
** Section: BeamSection  Profile: BeamRectProfile
*Beam Section, elset=BeamSet, material=Steel, poisson = 0.3, temperature=GRADIENTS, section=RECT
0.00947291, 0.138289
0.,0.,-1.
*End Part
**  
**
** ASSEMBLY
**
*Assembly, name=Assembly
**  
*Instance, name=Beam-1, part=Beam
*End Instance
**  
*Nset, nset=DistLoadNode_0, instance=Beam-1
 1,
*Nset, nset=DistLoadNode_1, instance=Beam-1
 2,
*Nset, nset=DistLoadNode_2, instance=Beam-1
 3,
*Nset, nset=DistLoadNode_3, instance=Beam-1
 4,
*Nset, nset=DistLoadNode_4, instance=Beam-1
 5,
*Nset, nset=DistLoadNode_5, instance=Beam-1
 6,
*Nset, nset=DistLoadNode_6, instance=Beam-1
 7,
*Nset, nset=DistLoadNode_7, instance=Beam-1
 8,
*Nset, nset=DistLoadNode_8, instance=Beam-1
 9,
*Nset, nset=DistLoadNode_9, instance=Beam-1
 10,
*Nset, nset=DistLoadNode_10, instance=Beam-1
 11,
*Nset, nset=DistLoadNode_11, instance=Beam-1
 12,
*Nset, nset=DistLoadNode_12, instance=Beam-1
 13,
*Nset, nset=DistLoadNode_13, instance=Beam-1
 14,
*Nset, nset=DistLoadNode_14, instance=Beam-1
 15,
*Nset, nset=DistLoadNode_15, instance=Beam-1
 16,
*Nset, nset=DistLoadNode_16, instance=Beam-1
 17,
*Nset, nset=DistLoadNode_17, instance=Beam-1
 18,
*Nset, nset=DistLoadNode_18, instance=Beam-1
 19,
*Nset, nset=DistLoadNode_19, instance=Beam-1
 20,
** ... 90 like lines cut
*Nset, nset=Fixed, instance=Beam-1
 1,
*End Assembly
** 
** MATERIALS
** 
*Material, name=Steel
*Density
7850.,
*Elastic
 2.1e+11, 0.3
** 
** BOUNDARY CONDITIONS
** 
** Name: Encastre Type: Displacement/Rotation
*Boundary
Fixed, 1, 1
Fixed, 2, 2
Fixed, 3, 3
Fixed, 4, 4
Fixed, 5, 5
Fixed, 6, 6
** ----------------------------------------------------------------
** 
** STEP: Step-1
** 
*Step, name=Step-1, nlgeom=NO
Static
*Static
1., 1., 1e-05, 1.
** 
** BOUNDARY CONDITIONS
** 
** Name: Encastre Type: Displacement/Rotation
*Boundary
Fixed, 1, 1
Fixed, 2, 2
Fixed, 3, 3
Fixed, 4, 4
Fixed, 5, 5
Fixed, 6, 6
** 
** LOADS
** 
** Name: DistCF_0   Type: Concentrated force
*Cload
DistLoadNode_0, 1, 0.
DistLoadNode_0, 2, -0.0366211
DistLoadNode_0, 3, 0.
** Name: DistCF_1   Type: Concentrated force
*Cload
DistLoadNode_1, 1, 0.
DistLoadNode_1, 2, -0.244141
DistLoadNode_1, 3, 0.
** Name: DistCF_2   Type: Concentrated force
*Cload
DistLoadNode_2, 1, 0.
DistLoadNode_2, 2, -0.488281
DistLoadNode_2, 3, 0.
** Name: DistCF_3   Type: Concentrated force
*Cload
DistLoadNode_3, 1, 0.
DistLoadNode_3, 2, -0.732422
DistLoadNode_3, 3, 0.
** Name: DistCF_4   Type: Concentrated force
*Cload
DistLoadNode_4, 1, 0.
DistLoadNode_4, 2, -0.976563
DistLoadNode_4, 3, 0.
** Name: DistCF_5   Type: Concentrated force
*Cload
DistLoadNode_5, 1, 0.
DistLoadNode_5, 2, -1.2207
DistLoadNode_5, 3, 0.
** Name: DistCF_6   Type: Concentrated force
*Cload
DistLoadNode_6, 1, 0.
DistLoadNode_6, 2, -1.46484
DistLoadNode_6, 3, 0.
** Name: DistCF_7   Type: Concentrated force
*Cload
DistLoadNode_7, 1, 0.
DistLoadNode_7, 2, -1.70898
DistLoadNode_7, 3, 0.
** Name: DistCF_8   Type: Concentrated force
*Cload
DistLoadNode_8, 1, 0.
DistLoadNode_8, 2, -1.95313
DistLoadNode_8, 3, 0.
** Name: DistCF_9   Type: Concentrated force
*Cload
DistLoadNode_9, 1, 0.
DistLoadNode_9, 2, -2.19727
DistLoadNode_9, 3, 0.
** Name: DistCF_10   Type: Concentrated force
*Cload
DistLoadNode_10, 1, 0.
DistLoadNode_10, 2, -2.44141
DistLoadNode_10, 3, 0.
** Name: DistCF_11   Type: Concentrated force
*Cload
DistLoadNode_11, 1, 0.
DistLoadNode_11, 2, -2.68555
DistLoadNode_11, 3, 0.
** Name: DistCF_12   Type: Concentrated force
*Cload
DistLoadNode_12, 1, 0.
DistLoadNode_12, 2, -2.92969
DistLoadNode_12, 3, 0.
** Name: DistCF_13   Type: Concentrated force
*Cload
DistLoadNode_13, 1, 0.
DistLoadNode_13, 2, -3.17383
DistLoadNode_13, 3, 0.
** Name: DistCF_14   Type: Concentrated force
*Cload
DistLoadNode_14, 1, 0.
DistLoadNode_14, 2, -3.41797
DistLoadNode_14, 3, 0.
** Name: DistCF_15   Type: Concentrated force
*Cload
DistLoadNode_15, 1, 0.
DistLoadNode_15, 2, -3.66211
DistLoadNode_15, 3, 0.
** Name: DistCF_16   Type: Concentrated force
*Cload
DistLoadNode_16, 1, 0.
DistLoadNode_16, 2, -3.90625
DistLoadNode_16, 3, 0.
** Name: DistCF_17   Type: Concentrated force
*Cload
DistLoadNode_17, 1, 0.
DistLoadNode_17, 2, -4.15039
DistLoadNode_17, 3, 0.
** Name: DistCF_18   Type: Concentrated force
*Cload
DistLoadNode_18, 1, 0.
DistLoadNode_18, 2, -4.39453
DistLoadNode_18, 3, 0.
** Name: DistCF_19   Type: Concentrated force
*Cload
DistLoadNode_19, 1, 0.
DistLoadNode_19, 2, -4.63867
DistLoadNode_19, 3, 0.
** Name: DistCF_20   Type: Concentrated force
*Cload
DistLoadNode_20, 1, 0.
DistLoadNode_20, 2, -4.88281
DistLoadNode_20, 3, 0.
** Name: DistCF_21   Type: Concentrated force
*Cload
DistLoadNode_21, 1, 0.
DistLoadNode_21, 2, -5.12695
DistLoadNode_21, 3, 0.
** Name: DistCF_22   Type: Concentrated force
*Cload
DistLoadNode_22, 1, 0.
DistLoadNode_22, 2, -5.37109
DistLoadNode_22, 3, 0.
** Name: DistCF_23   Type: Concentrated force
*Cload
DistLoadNode_23, 1, 0.
DistLoadNode_23, 2, -5.61523
DistLoadNode_23, 3, 0.
** Name: DistCF_24   Type: Concentrated force
*Cload
DistLoadNode_24, 1, 0.
DistLoadNode_24, 2, -5.85938
DistLoadNode_24, 3, 0.
** Name: DistCF_25   Type: Concentrated force
*Cload
DistLoadNode_25, 1, 0.
DistLoadNode_25, 2, -6.10352
DistLoadNode_25, 3, 0.
** Name: DistCF_26   Type: Concentrated force
*Cload
DistLoadNode_26, 1, 0.
DistLoadNode_26, 2, -6.34766
DistLoadNode_26, 3, 0.
** Name: DistCF_27   Type: Concentrated force
*Cload
DistLoadNode_27, 1, 0.
DistLoadNode_27, 2, -6.5918
DistLoadNode_27, 3, 0.
** Name: DistCF_28   Type: Concentrated force
*Cload
DistLoadNode_28, 1, 0.
DistLoadNode_28, 2, -6.83594
DistLoadNode_28, 3, 0.
** Name: DistCF_29   Type: Concentrated force
*Cload
DistLoadNode_29, 1, 0.
DistLoadNode_29, 2, -7.08008
DistLoadNode_29, 3, 0.
** Name: DistCF_30   Type: Concentrated force
*Cload
DistLoadNode_30, 1, 0.
DistLoadNode_30, 2, -7.32422
DistLoadNode_30, 3, 0.
** Name: DistCF_31   Type: Concentrated force
*Cload
DistLoadNode_31, 1, 0.
DistLoadNode_31, 2, -7.56836
DistLoadNode_31, 3, 0.
** Name: DistCF_32   Type: Concentrated force
*Cload
DistLoadNode_32, 1, 0.
DistLoadNode_32, 2, -7.8125
DistLoadNode_32, 3, 0.
** Name: DistCF_33   Type: Concentrated force
*Cload
DistLoadNode_33, 1, 0.
DistLoadNode_33, 2, -8.05664
DistLoadNode_33, 3, 0.
** Name: DistCF_34   Type: Concentrated force
*Cload
DistLoadNode_34, 1, 0.
DistLoadNode_34, 2, -8.30078
DistLoadNode_34, 3, 0.
** Name: DistCF_35   Type: Concentrated force
*Cload
DistLoadNode_35, 1, 0.
DistLoadNode_35, 2, -8.54492
DistLoadNode_35, 3, 0.
** Name: DistCF_36   Type: Concentrated force
*Cload
DistLoadNode_36, 1, 0.
DistLoadNode_36, 2, -8.78906
DistLoadNode_36, 3, 0.
** Name: DistCF_37   Type: Concentrated force
*Cload
DistLoadNode_37, 1, 0.
DistLoadNode_37, 2, -9.0332
DistLoadNode_37, 3, 0.
** Name: DistCF_38   Type: Concentrated force
*Cload
DistLoadNode_38, 1, 0.
DistLoadNode_38, 2, -9.27734
DistLoadNode_38, 3, 0.
** Name: DistCF_39   Type: Concentrated force
*Cload
DistLoadNode_39, 1, 0.
DistLoadNode_39, 2, -9.52148
DistLoadNode_39, 3, 0.
** Name: DistCF_40   Type: Concentrated force
*Cload
DistLoadNode_40, 1, 0.
DistLoadNode_40, 2, -9.76563
DistLoadNode_40, 3, 0.
** Name: DistCF_41   Type: Concentrated force
*Cload
DistLoadNode_41, 1, 0.
DistLoadNode_41, 2, -10.0098
DistLoadNode_41, 3, 0.
** Name: DistCF_42   Type: Concentrated force
*Cload
DistLoadNode_42, 1, 0.
DistLoadNode_42, 2, -10.2539
DistLoadNode_42, 3, 0.
** Name: DistCF_43   Type: Concentrated force
*Cload
DistLoadNode_43, 1, 0.
DistLoadNode_43, 2, -10.498
DistLoadNode_43, 3, 0.
** Name: DistCF_44   Type: Concentrated force
*Cload
DistLoadNode_44, 1, 0.
DistLoadNode_44, 2, -10.7422
DistLoadNode_44, 3, 0.
** Name: DistCF_45   Type: Concentrated force
*Cload
DistLoadNode_45, 1, 0.
DistLoadNode_45, 2, -10.9863
DistLoadNode_45, 3, 0.
** Name: DistCF_46   Type: Concentrated force
*Cload
DistLoadNode_46, 1, 0.
DistLoadNode_46, 2, -11.2305
DistLoadNode_46, 3, 0.
** Name: DistCF_47   Type: Concentrated force
*Cload
DistLoadNode_47, 1, 0.
DistLoadNode_47, 2, -11.4746
DistLoadNode_47, 3, 0.
** Name: DistCF_48   Type: Concentrated force
*Cload
DistLoadNode_48, 1, 0.
DistLoadNode_48, 2, -11.7188
DistLoadNode_48, 3, 0.
** Name: DistCF_49   Type: Concentrated force
*Cload
DistLoadNode_49, 1, 0.
DistLoadNode_49, 2, -11.9629
DistLoadNode_49, 3, 0.
** Name: DistCF_50   Type: Concentrated force
*Cload
DistLoadNode_50, 1, 0.
DistLoadNode_50, 2, -12.207
DistLoadNode_50, 3, 0.
** Name: DistCF_51   Type: Concentrated force
*Cload
DistLoadNode_51, 1, 0.
DistLoadNode_51, 2, -12.4512
DistLoadNode_51, 3, 0.
** Name: DistCF_52   Type: Concentrated force
*Cload
DistLoadNode_52, 1, 0.
DistLoadNode_52, 2, -12.6953
DistLoadNode_52, 3, 0.
** Name: DistCF_53   Type: Concentrated force
*Cload
DistLoadNode_53, 1, 0.
DistLoadNode_53, 2, -12.9395
DistLoadNode_53, 3, 0.
** Name: DistCF_54   Type: Concentrated force
*Cload
DistLoadNode_54, 1, 0.
DistLoadNode_54, 2, -13.1836
DistLoadNode_54, 3, 0.
** Name: DistCF_55   Type: Concentrated force
*Cload
DistLoadNode_55, 1, 0.
DistLoadNode_55, 2, -13.4277
DistLoadNode_55, 3, 0.
** Name: DistCF_56   Type: Concentrated force
*Cload
DistLoadNode_56, 1, 0.
DistLoadNode_56, 2, -13.6719
DistLoadNode_56, 3, 0.
** Name: DistCF_57   Type: Concentrated force
*Cload
DistLoadNode_57, 1, 0.
DistLoadNode_57, 2, -13.916
DistLoadNode_57, 3, 0.
** Name: DistCF_58   Type: Concentrated force
*Cload
DistLoadNode_58, 1, 0.
DistLoadNode_58, 2, -14.1602
DistLoadNode_58, 3, 0.
** Name: DistCF_59   Type: Concentrated force
*Cload
DistLoadNode_59, 1, 0.
DistLoadNode_59, 2, -14.4043
DistLoadNode_59, 3, 0.
** Name: DistCF_60   Type: Concentrated force
*Cload
DistLoadNode_60, 1, 0.
DistLoadNode_60, 2, -14.6484
DistLoadNode_60, 3, 0.
** Name: DistCF_61   Type: Concentrated force
*Cload
DistLoadNode_61, 1, 0.
DistLoadNode_61, 2, -14.8926
DistLoadNode_61, 3, 0.
** Name: DistCF_62   Type: Concentrated force
*Cload
DistLoadNode_62, 1, 0.
DistLoadNode_62, 2, -15.1367
DistLoadNode_62, 3, 0.
** Name: DistCF_63   Type: Concentrated force
*Cload
DistLoadNode_63, 1, 0.
DistLoadNode_63, 2, -15.3809
DistLoadNode_63, 3, 0.
** Name: DistCF_64   Type: Concentrated force
*Cload
DistLoadNode_64, 1, 0.
DistLoadNode_64, 2, -7.77588
DistLoadNode_64, 3, 0.
** 
** OUTPUT REQUESTS
** 
*Restart, write, frequency=0
** 
** FIELD OUTPUT: F-Output-1
** 
*Output, field, variable=PRESELECT
** 
** HISTORY OUTPUT: H-Output-1
** 
*Output, history, variable=PRESELECT
*End Step
